SC.fds
Generated by PyroSim - Version 2022.2.0803
17-Nov-2022 14:33:11

&HEAD CHID='SC'/
&TIME T_END=300.0/
&DUMP COLUMN_DUMP_LIMIT=.TRUE., DT_SL3D=0.25, NFRAMES=600/

&MESH ID='MESH04-b-a', IJK=27,28,93, XB=15.7,18.4,8.8,14.4,2.4,21.0/
&MESH ID='MESH04-a', IJK=27,56,54, XB=15.7,18.4,8.8,14.4,-3.0,2.4/
&MESH ID='MESH04-b-b', IJK=27,28,64, XB=15.7,18.4,8.8,14.4,21.0,33.8/
&MESH ID='MESH-b', IJK=68,28,24, XB=11.3,18.1,6.0,8.8,0.0,2.4/
&MESH ID='MESH02', IJK=77,16,24, XB=3.6,11.3,6.6,8.2,0.0,2.4/
&MESH ID='MESH03', IJK=20,16,24, XB=18.1,20.1,6.6,8.2,0.0,2.4/
&MESH ID='MESH-a-c-merged', IJK=44,59,24, XB=14.3,18.7,0.1,6.0,0.0,2.4/

&SPEC ID='WATER VAPOR'/

&PART ID='Water01',
      SPEC_ID='WATER VAPOR',
      DIAMETER=500.0,
      MONODISPERSE=.TRUE.,
      AGE=10.0,
      SAMPLING_FACTOR=1/

&REAC ID='POLYURETHANE',
      FYI='NFPA Babrauskas',
      FUEL='REAC_FUEL',
      C=6.3,
      H=7.1,
      O=2.1,
      N=1.0,
      SOOT_YIELD=0.1,
      HEAT_OF_COMBUSTION=2.0E+4/

&PROP ID='BS 9251',
      PART_ID='Water01',
      K_FACTOR=40.0,
      OPERATING_PRESSURE=0.5,
      PARTICLE_VELOCITY=5.0,
      SPRAY_ANGLE=60.0,75.0/
&CTRL ID='invert', FUNCTION_TYPE='ALL', LATCH=.FALSE., INITIAL_STATE=.TRUE., INPUT_ID='Apt_Door_FF->OUT->OUT->OUT'/
&DEVC ID='SPRK1', PROP_ID='BS 9251', XYZ=16.0,4.8,2.3, QUANTITY='TIME', SETPOINT=0.0/
&DEVC ID='SPRK01', PROP_ID='BS 9251', XYZ=16.0,1.8,2.3, QUANTITY='TIME', SETPOINT=0.0/
&DEVC ID='cc_FSA_temp_2m', QUANTITY='TEMPERATURE', XYZ=16.4,8.2,1.5/
&DEVC ID='stair_temp_5', QUANTITY='TEMPERATURE', XYZ=16.2,9.0,2.1/
&DEVC ID='stair_vis_1', QUANTITY='VISIBILITY', XYZ=16.2,9.0,0.6/
&DEVC ID='stair_vis_2', QUANTITY='VISIBILITY', XYZ=16.2,9.0,1.1/
&DEVC ID='stair_vis_3', QUANTITY='VISIBILITY', XYZ=16.2,9.0,1.6/
&DEVC ID='stair_vis_4', QUANTITY='VISIBILITY', XYZ=16.2,9.0,1.9/
&DEVC ID='stair_vis_5', QUANTITY='VISIBILITY', XYZ=16.2,9.0,2.1/
&DEVC ID='stair_temp_1', QUANTITY='TEMPERATURE', XYZ=16.2,9.0,0.6/
&DEVC ID='stair_temp_2', QUANTITY='TEMPERATURE', XYZ=16.2,9.0,1.1/
&DEVC ID='stair_temp_3', QUANTITY='TEMPERATURE', XYZ=16.2,9.0,1.6/
&DEVC ID='stair_temp_4', QUANTITY='TEMPERATURE', XYZ=16.2,9.0,1.9/
&DEVC ID='stair_temp_10', QUANTITY='TEMPERATURE', XYZ=16.2,10.0,2.1/
&DEVC ID='stair_vis_6', QUANTITY='VISIBILITY', XYZ=16.2,10.0,0.6/
&DEVC ID='stair_vis_7', QUANTITY='VISIBILITY', XYZ=16.2,10.0,1.1/
&DEVC ID='stair_vis_8', QUANTITY='VISIBILITY', XYZ=16.2,10.0,1.6/
&DEVC ID='stair_vis_9', QUANTITY='VISIBILITY', XYZ=16.2,10.0,1.9/
&DEVC ID='stair_vis_10', QUANTITY='VISIBILITY', XYZ=16.2,10.0,2.1/
&DEVC ID='stair_temp_6', QUANTITY='TEMPERATURE', XYZ=16.2,10.0,0.6/
&DEVC ID='stair_temp_7', QUANTITY='TEMPERATURE', XYZ=16.2,10.0,1.1/
&DEVC ID='stair_temp_8', QUANTITY='TEMPERATURE', XYZ=16.2,10.0,1.6/
&DEVC ID='stair_temp_9', QUANTITY='TEMPERATURE', XYZ=16.2,10.0,1.9/
&DEVC ID='cc_pres_16', QUANTITY='PRESSURE', XYZ=19.4,7.4,1.9/
&DEVC ID='cc_pres_1', QUANTITY='PRESSURE', XYZ=7.9,7.4,0.4/
&DEVC ID='cc_pres_2', QUANTITY='PRESSURE', XYZ=7.9,7.4,0.9/
&DEVC ID='cc_pres_3', QUANTITY='PRESSURE', XYZ=7.9,7.4,1.4/
&DEVC ID='cc_pres_4', QUANTITY='PRESSURE', XYZ=7.9,7.4,1.9/
&DEVC ID='cc_pres_5', QUANTITY='PRESSURE', XYZ=4.2,7.4,0.4/
&DEVC ID='cc_pres_6', QUANTITY='PRESSURE', XYZ=4.2,7.4,0.9/
&DEVC ID='cc_pres_7', QUANTITY='PRESSURE', XYZ=4.2,7.4,1.4/
&DEVC ID='cc_pres_8', QUANTITY='PRESSURE', XYZ=4.2,7.4,1.9/
&DEVC ID='cc_pres_9', QUANTITY='PRESSURE', XYZ=14.1,7.4,0.4/
&DEVC ID='cc_pres_10', QUANTITY='PRESSURE', XYZ=14.1,7.4,0.9/
&DEVC ID='cc_pres_11', QUANTITY='PRESSURE', XYZ=14.1,7.4,1.4/
&DEVC ID='cc_pres_12', QUANTITY='PRESSURE', XYZ=14.1,7.4,1.9/
&DEVC ID='cc_pres_13', QUANTITY='PRESSURE', XYZ=19.4,7.4,0.4/
&DEVC ID='cc_pres_14', QUANTITY='PRESSURE', XYZ=19.4,7.4,0.9/
&DEVC ID='cc_pres_15', QUANTITY='PRESSURE', XYZ=19.4,7.4,1.4/
&DEVC ID='Apt_Door_FF->OUT->OUT->OUT', QUANTITY='TIME', XYZ=15.7,8.8,2.4, SETPOINT=60.0, INITIAL_STATE=.TRUE./
&DEVC ID='Stair_Door_FF->OUT->OUT->OUT', QUANTITY='TIME', XYZ=15.7,8.8,2.4, SETPOINT=0.0, INITIAL_STATE=.TRUE./

&MATL ID='GYPSUM PLASTER',
      FYI='Quintiere, Fire Behavior - NIST NRC Validation',
      SPECIFIC_HEAT=0.84,
      CONDUCTIVITY=0.48,
      DENSITY=1440.0/

&SURF ID='Plasterboard',
      COLOR='GRAY 80',
      DEFAULT=.TRUE.,
      BACKING='VOID',
      MATL_ID(1,1)='GYPSUM PLASTER',
      MATL_MASS_FRACTION(1,1)=1.0,
      THICKNESS(1)=0.05/
&SURF ID='fire',
      COLOR='RED',
      HRRPUA=445.0/
&SURF ID='extract',
      RGB=26,128,26,
      VOLUME_FLOW=5.0/

&OBST ID='Obstruction', XB=12.7,16.8,6.3,6.6,0.0,2.4, COLOR='GRAY 40', SURF_ID='Plasterboard'/ 
&OBST ID='Obstruction', XB=11.3118,11.6,5.18626,6.45797,0.0,2.4, COLOR='GRAY 40', SURF_ID='Plasterboard'/ 
&OBST ID='Obstruction', XB=12.7,13.1781,5.25,6.36312,0.0,2.4, COLOR='GRAY 40', SURF_ID='Plasterboard'/ 
&OBST ID='Obstruction', XB=11.4,13.1971,5.2,5.4,0.0,2.4, COLOR='GRAY 40', SURF_ID='Plasterboard'/ 
&OBST ID='Obstruction', XB=11.4,15.6,8.7,8.8,0.0,2.4, COLOR='GRAY 40', SURF_ID='Plasterboard'/ 
&OBST ID='Obstruction', XB=13.0528,14.1239,8.58494,8.8,0.0,2.4, COLOR='GRAY 40', SURF_ID='Plasterboard'/ 
&OBST ID='Obstruction', XB=13.5034,13.7034,8.7,10.7786,0.0,2.4, COLOR='GRAY 40', SURF_ID='Plasterboard'/ 
&OBST ID='Obstruction', XB=18.16,18.4691,8.6188,14.2416,0.0,2.4, COLOR='GRAY 40', SURF_ID='Plasterboard'/ 
&OBST ID='Obstruction', XB=17.8,20.074,6.5,6.7,0.0,2.4, COLOR='GRAY 40', SURF_ID='Plasterboard'/ 
&OBST ID='Obstruction', XB=17.6,17.9704,6.3,6.6,0.0,2.4, COLOR='GRAY 40', SURF_ID='Plasterboard'/ 
&OBST ID='Obstruction', XB=17.7521,18.7564,8.0,8.73337,0.0,2.4, COLOR='GRAY 40', SURF_ID='Plasterboard'/ 
&OBST ID='Obstruction', XB=7.1523,7.3523,8.09274,14.4565,0.0,2.4, COLOR='GRAY 40', SURF_ID='Plasterboard'/ 
&OBST ID='Obstruction', XB=10.3811,10.5811,9.90148,14.4521,0.0,2.4, COLOR='GRAY 40', SURF_ID='Plasterboard'/ 
&OBST ID='Obstruction', XB=7.3523,10.4259,10.8795,10.9958,0.0,2.4, COLOR='GRAY 40', SURF_ID='Plasterboard'/ 
&OBST ID='Obstruction', XB=8.7664,8.90381,8.15244,10.9958,0.0,2.4, COLOR='GRAY 40', SURF_ID='Plasterboard'/ 
&OBST ID='Obstruction', XB=2.9415,3.03182,10.8291,14.3665,0.0,2.4, COLOR='GRAY 40', SURF_ID='Plasterboard'/ 
&OBST ID='Obstruction', XB=2.63955,2.75324,6.6212,8.13854,0.0,2.4, COLOR='GRAY 40', SURF_ID='Plasterboard'/ 
&OBST ID='Obstruction', XB=5.06766,5.72563,8.02314,8.69005,0.0,2.4, COLOR='GRAY 40', SURF_ID='Plasterboard'/ 
&OBST ID='Obstruction', XB=5.06042,5.69439,5.69393,6.6737,0.0,2.4, COLOR='GRAY 40', SURF_ID='Plasterboard'/ 
&OBST ID='Obstruction', XB=10.1956,10.7626,5.94368,6.69487,0.0,2.4, COLOR='GRAY 40', SURF_ID='Plasterboard'/ 
! ... 24 like lines cut
&OBST ID='Obstruction', XB=12.1,13.0,8.7,8.8,0.0,2.0, PERMIT_HOLE=.FALSE., SURF_ID='Plasterboard'/ 
&OBST ID='Obstruction', XB=14.2,15.1,8.7,8.8,0.0,2.0, PERMIT_HOLE=.FALSE., SURF_ID='Plasterboard'/ 
&OBST ID='Obstruction', XB=15.6,17.3,8.5,9.4,-3.1,0.0, COLOR='GRAY 40', SURF_ID='Plasterboard'/ 
&OBST ID='Obstruction', XB=11.3,11.4,3.6,3.7,0.0,2.4, COLOR='GRAY 40', SURF_ID='Plasterboard'/ 
&OBST ID='Obstruction', XB=11.3,14.3,5.2,5.3,0.0,2.4, COLOR='GRAY 40', SURF_ID='Plasterboard'/ 
&OBST ID='Obstruction', XB=11.3,18.1,-1.38778E-16,0.2,0.0,2.4, COLOR='GRAY 40', SURF_ID='Plasterboard'/ 
&OBST ID='Obstruction', XB=11.4,14.3,3.5,3.6,0.0,2.4, COLOR='GRAY 40', SURF_ID='Plasterboard'/ 
&OBST ID='Obstruction', XB=11.5,11.6,5.4,6.1,0.0,2.4, COLOR='GRAY 40', SURF_ID='Plasterboard'/ 
&OBST ID='Obstruction', XB=11.5,12.8,5.3,5.4,0.0,2.4, COLOR='GRAY 40', SURF_ID='Plasterboard'/ 
&OBST ID='Obstruction', XB=12.7,12.8,5.4,6.1,0.0,2.4, COLOR='GRAY 40', SURF_ID='Plasterboard'/ 
&OBST ID='Obstruction', XB=14.2,14.3,0.2,3.5,0.0,2.4, COLOR='GRAY 40', SURF_ID='Plasterboard'/ 
&OBST ID='Obstruction', XB=14.2,14.3,3.6,5.2,0.0,2.4, COLOR='GRAY 40', SURF_ID='Plasterboard'/ 
&OBST ID='Obstruction', XB=14.2,14.3,5.3,6.3,0.0,2.4, COLOR='GRAY 40', SURF_ID='Plasterboard'/ 
&OBST ID='Obstruction', XB=17.4,17.5,0.2,2.6,0.0,2.4, COLOR='GRAY 40', SURF_ID='Plasterboard'/ 
&OBST ID='Obstruction', XB=17.4,18.0,2.6,2.7,0.0,2.4, COLOR='GRAY 40', SURF_ID='Plasterboard'/ 
&OBST ID='Obstruction', XB=17.9,18.1,6.5,6.6,0.0,2.4, COLOR='GRAY 40', SURF_ID='Plasterboard'/ 
&OBST ID='Obstruction', XB=18.1,18.8,6.6,6.6,0.0,2.4, COLOR='GRAY 40', SURF_ID='Plasterboard'/ 
&OBST ID='Obstruction', XB=11.6,12.7,5.4,5.4,-3.0,1.52656E-15, COLOR='GRAY 40', SURF_ID='Plasterboard'/ 
&OBST ID='Obstruction', XB=11.6,12.7,6.1,6.1,-3.0,1.52656E-15, COLOR='GRAY 40', SURF_ID='Plasterboard'/ 
&OBST ID='Obstruction', XB=11.6,11.6,5.4,6.1,-3.0,1.52656E-15, COLOR='GRAY 40', SURF_ID='Plasterboard'/ 
&OBST ID='Obstruction', XB=12.7,12.7,5.4,6.1,-3.0,1.52656E-15, COLOR='GRAY 40', SURF_ID='Plasterboard'/ 
&OBST ID='Obstruction', XB=15.7,16.9,10.3,10.5,9.0,9.1, COLOR='GRAY 40', SURF_ID='Plasterboard'/ 
! ... 330 like lines cut
&OBST ID='Obstruction', XB=15.7,15.8,9.4,10.3,-0.2,2.4, COLOR='INVISIBLE', SURF_ID='Plasterboard'/ 
&OBST ID='Obstruction', XB=15.7,15.8,10.3,14.2,1.52656E-15,2.4, COLOR='GRAY 40', SURF_ID='Plasterboard'/ 
&OBST ID='Obstruction', XB=15.7,15.8,8.8,9.3,1.52656E-15,9.0, COLOR='GRAY 40', SURF_ID='Plasterboard'/ 
&OBST ID='Obstruction', XB=15.7,16.9,10.3,10.5,-3.0,-2.9, COLOR='GRAY 40', SURF_ID='Plasterboard'/ 
&OBST ID='Obstruction', XB=15.7,16.9,10.5,10.6,-3.0,-2.8, COLOR='GRAY 40', SURF_ID='Plasterboard'/ 
&OBST ID='Obstruction', XB=15.7,16.9,10.6,10.7,-2.9,-2.8, COLOR='GRAY 40', SURF_ID='Plasterboard'/ 
&OBST ID='Obstruction', XB=15.7,16.9,10.7,10.8,-2.9,-2.7, COLOR='GRAY 40', SURF_ID='Plasterboard'/ 
&OBST ID='Obstruction', XB=15.7,16.9,10.8,10.9,-2.8,-2.7, COLOR='GRAY 40', SURF_ID='Plasterboard'/ 
&OBST ID='Obstruction', XB=15.7,16.9,10.9,11.0,-2.8,-2.6, COLOR='GRAY 40', SURF_ID='Plasterboard'/ 
&OBST ID='Obstruction', XB=15.7,16.9,11.0,11.1,-2.7,-2.6, COLOR='GRAY 40', SURF_ID='Plasterboard'/ 
&OBST ID='Obstruction', XB=15.7,16.9,11.1,11.2,-2.7,-2.5, COLOR='GRAY 40', SURF_ID='Plasterboard'/ 
&OBST ID='Obstruction', XB=15.7,16.9,11.2,11.3,-2.6,-2.5, COLOR='GRAY 40', SURF_ID='Plasterboard'/ 
&OBST ID='Obstruction', XB=15.7,16.9,11.3,11.4,-2.6,-2.4, COLOR='GRAY 40', SURF_ID='Plasterboard'/ 
&OBST ID='Obstruction', XB=15.7,16.9,11.4,11.5,-2.5,-2.4, COLOR='GRAY 40', SURF_ID='Plasterboard'/ 
&OBST ID='Obstruction', XB=15.7,16.9,11.5,11.6,-2.5,-2.3, COLOR='GRAY 40', SURF_ID='Plasterboard'/ 
&OBST ID='Obstruction', XB=15.7,16.9,11.6,11.7,-2.4,-2.3, COLOR='GRAY 40', SURF_ID='Plasterboard'/ 
&OBST ID='Obstruction', XB=15.7,16.9,11.7,11.8,-2.4,-2.2, COLOR='GRAY 40', SURF_ID='Plasterboard'/ 
&OBST ID='Obstruction', XB=15.7,16.9,11.8,11.9,-2.3,-2.2, COLOR='GRAY 40', SURF_ID='Plasterboard'/ 
&OBST ID='Obstruction', XB=15.7,16.9,11.9,12.0,-2.3,-2.1, COLOR='GRAY 40', SURF_ID='Plasterboard'/ 
&OBST ID='Obstruction', XB=15.7,16.9,12.0,12.1,-2.2,-2.1, COLOR='GRAY 40', SURF_ID='Plasterboard'/ 
&OBST ID='Obstruction', XB=15.7,16.9,12.1,12.2,-2.2,-2.0, COLOR='GRAY 40', SURF_ID='Plasterboard'/ 
! ... 643 like lines cut
&OBST ID='fire', XB=15.2,16.7,2.6,4.1,0.0,0.2, RGB=255,0,51, SURF_IDS='fire','INERT','INERT'/ 
&OBST ID='door', XB=16.8,17.6,6.3,6.4,0.0,2.1, SURF_ID='Plasterboard', DEVC_ID='Apt_Door_FF->OUT->OUT->OUT'/ 
&OBST ID='Obstruction', XB=16.8,17.6,6.3,6.4,2.1,2.4, SURF_ID='Plasterboard'/ 
&OBST ID='door', XB=15.8,16.6,8.6,8.7,0.0,2.1, SURF_ID='Plasterboard', DEVC_ID='Stair_Door_FF->OUT->OUT->OUT'/ 
&OBST ID='Obstruction', XB=15.8,16.6,8.6,8.7,2.1,2.4, SURF_ID='Plasterboard'/ 
&OBST ID='Obstruction', XB=17.9,18.0,3.4,5.2,0.0,1.0, COLOR='GRAY 40', SURF_ID='Plasterboard', CTRL_ID='invert'/ 
&OBST ID='Obstruction', XB=17.9,18.0,6.0,6.5,0.0,2.4, COLOR='GRAY 40', SURF_ID='Plasterboard'/ 
&OBST ID='Obstruction', XB=17.9,18.0,2.7,3.4,0.0,2.4, COLOR='GRAY 40', SURF_ID='Plasterboard'/ 
&OBST ID='Obstruction', XB=17.9,18.0,5.2,6.0,0.0,2.4, COLOR='GRAY 40', SURF_ID='Plasterboard'/ 
&OBST ID='Obstruction', XB=17.9,18.0,3.4,5.2,1.0,2.4, COLOR='GRAY 40', SURF_ID='Plasterboard'/ 

&HOLE ID='Hole', XB=15.8,16.6,8.7,9.4,-0.01,2.1/ 
&HOLE ID='Hole', XB=16.0,17.0,11.0,12.0,32.5899,34.3737, COLOR='INVISIBLE'/ 
&HOLE ID='Hole', XB=4.0,4.9,8.0,8.21,-0.01,2.0/ 
&HOLE ID='Hole', XB=9.0,9.9,8.0,8.21,-0.01,2.0/ 
&HOLE ID='Hole', XB=18.9,19.8,6.5,6.7,-0.01,2.0/ 

&VENT ID='Mesh Vent: MESH-a-c-merged [XMAX]', SURF_ID='OPEN', XB=18.7,18.7,0.1,6.0,0.0,2.4/ 
&VENT ID='Mesh Vent: MESH-a-c-merged [ZMAX]', SURF_ID='OPEN', XB=18.0,18.7,0.1,6.0,2.4,2.4/ 
&VENT ID='Mesh Vent: MESH-a-c-merged [ZMIN]', SURF_ID='OPEN', XB=18.0,18.7,0.1,6.0,0.0,0.0/ 
&VENT ID='Mesh Vent: MESH04-b-b [ZMAX]', SURF_ID='OPEN', XB=15.7,18.4,8.8,14.4,33.8,33.8/ 
&VENT ID='Vent', SURF_ID='extract', XB=11.6,12.6,6.0,6.0,1.4,2.4/ 

&SLCF QUANTITY='VISIBILITY', PBZ=2.0/
&SLCF QUANTITY='VELOCITY', VECTOR=.TRUE., PBZ=2.0/
&SLCF QUANTITY='TEMPERATURE', PBZ=2.0/
&SLCF QUANTITY='VISIBILITY', PBX=16.2/
&SLCF QUANTITY='TEMPERATURE', PBX=16.2/
&SLCF QUANTITY='VISIBILITY', PBY=7.4/
&SLCF QUANTITY='TEMPERATURE', PBY=7.4/


&TAIL /
