
 Fire Dynamics Simulator

 Current Date     : November 18, 2022  13:40:57
 Revision         : FDS6.7.9-0-gec52dee42-release
 Revision Date    : Sun Jun 26 14:36:40 2022 -0400
 Compiler         : 
 Compilation Date : Tue 06/28/2022  11:17 PM

 MPI Enabled;    Number of MPI Processes:       7
 OpenMP Enabled; Number of OpenMP Threads:     25

 MPI version: 3.1
 MPI library version: Intel(R) MPI Library 2021.6 for Windows* OS


 Job TITLE        : 
 Job ID string    : SC


 Grid Dimensions, Mesh     1

   Cells in the X Direction            27
   Cells in the Y Direction            28
   Cells in the Z Direction            93
   Number of Grid Cells             70308


 Physical Dimensions, Mesh     1

   Length (m)                       2.700
   Width  (m)                       5.600
   Height (m)                      18.600
   Initial Time Step (s)            0.026

 Grid Dimensions, Mesh     2

   Cells in the X Direction            27
   Cells in the Y Direction            56
   Cells in the Z Direction            54
   Number of Grid Cells             81648


 Physical Dimensions, Mesh     2

   Length (m)                       2.700
   Width  (m)                       5.600
   Height (m)                       5.400
   Initial Time Step (s)            0.026

 Grid Dimensions, Mesh     3

   Cells in the X Direction            27
   Cells in the Y Direction            28
   Cells in the Z Direction            64
   Number of Grid Cells             48384


 Physical Dimensions, Mesh     3

   Length (m)                       2.700
   Width  (m)                       5.600
   Height (m)                      12.800
   Initial Time Step (s)            0.026

 Grid Dimensions, Mesh     4

   Cells in the X Direction            68
   Cells in the Y Direction            28
   Cells in the Z Direction            24
   Number of Grid Cells             45696


 Physical Dimensions, Mesh     4

   Length (m)                       6.800
   Width  (m)                       2.800
   Height (m)                       2.400
   Initial Time Step (s)            0.026

 Grid Dimensions, Mesh     5

   Cells in the X Direction            77
   Cells in the Y Direction            16
   Cells in the Z Direction            24
   Number of Grid Cells             29568


 Physical Dimensions, Mesh     5

   Length (m)                       7.700
   Width  (m)                       1.600
   Height (m)                       2.400
   Initial Time Step (s)            0.026

 Grid Dimensions, Mesh     6

   Cells in the X Direction            20
   Cells in the Y Direction            16
   Cells in the Z Direction            24
   Number of Grid Cells              7680


 Physical Dimensions, Mesh     6

   Length (m)                       2.000
   Width  (m)                       1.600
   Height (m)                       2.400
   Initial Time Step (s)            0.026

 Grid Dimensions, Mesh     7

   Cells in the X Direction            44
   Cells in the Y Direction            59
   Cells in the Z Direction            24
   Number of Grid Cells             62304


 Physical Dimensions, Mesh     7

   Length (m)                       4.400
   Width  (m)                       5.900
   Height (m)                       2.400
   Initial Time Step (s)            0.026

 Total Number of Grid Cells        345588


 Maximum Cell Aspect Ratio          2.000
 CFL Velocity Norm                      2


 Miscellaneous Parameters

   Simulation Start Time (s)          0.0
   Simulation End Time (s)          300.0
   Background Pressure (Pa)     101325.00
   Ambient Temperature (C)          20.00

   3D Cartesian
   VLES Calculation
   Eddy Viscosity: Deardorff Model (C_DEARDORFF = 0.10)
   Surface Plasterboard Eddy Viscosity: WALE Model (C_WALE = 0.60)
   Surface fire Eddy Viscosity: WALE Model (C_WALE = 0.60)
   Surface extract Eddy Viscosity: WALE Model (C_WALE = 0.60)
   Turbulent Prandtl Number:         0.50
   Turbulent Schmidt Number:         0.50


 Background Stratification

      Z (m)     P_0 (Pa)    TMP_0 (C)
   ------------------------------------
       20.90    101080.26     20.00
       20.70    101082.58     20.00
       20.50    101084.90     20.00
       20.30    101087.23     20.00
       20.10    101089.55     20.00
       19.90    101091.96     20.00
       19.70    101094.29     20.00
       19.50    101096.61     20.00
       19.30    101098.93     20.00
       19.10    101101.26     20.00
       18.90    101103.58     20.00
       18.70    101105.99     20.00
       18.50    101108.32     20.00
       18.30    101110.64     20.00
       18.10    101112.96     20.00
       17.90    101115.29     20.00
       17.70    101117.61     20.00
       17.50    101120.02     20.00
       17.30    101122.35     20.00
       17.10    101124.67     20.00
       16.90    101127.00     20.00
       16.70    101129.32     20.00
       16.50    101131.73     20.00
       16.30    101134.06     20.00
       16.10    101136.38     20.00
       15.90    101138.71     20.00
       15.70    101141.03     20.00
       15.50    101143.36     20.00
       15.30    101145.77     20.00
       15.10    101148.10     20.00
       14.90    101150.42     20.00
       14.70    101152.75     20.00
       14.50    101155.07     20.00
       14.30    101157.40     20.00
       14.10    101159.81     20.00
       13.90    101162.13     20.00
       13.70    101164.46     20.00
       13.50    101166.78     20.00
       13.30    101169.11     20.00
       13.10    101171.44     20.00
       12.90    101173.85     20.00
       12.70    101176.17     20.00
       12.50    101178.50     20.00
       12.30    101180.83     20.00
       12.10    101183.15     20.00
       11.90    101185.56     20.00
       11.70    101187.89     20.00
       11.50    101190.22     20.00
       11.30    101192.54     20.00
       11.10    101194.87     20.00
       10.90    101197.20     20.00
       10.70    101199.61     20.00
       10.50    101201.93     20.00
       10.30    101204.26     20.00
       10.10    101206.59     20.00
        9.90    101208.91     20.00
        9.70    101211.24     20.00
        9.50    101213.65     20.00
        9.30    101215.98     20.00
        9.10    101218.31     20.00
        8.90    101220.63     20.00
        8.70    101222.96     20.00
        8.50    101225.29     20.00
        8.30    101227.70     20.00
        8.10    101230.03     20.00
        7.90    101232.35     20.00
        7.70    101234.68     20.00
        7.50    101237.01     20.00
        7.30    101239.42     20.00
        7.10    101241.75     20.00
        6.90    101244.08     20.00
        6.70    101246.41     20.00
        6.50    101248.73     20.00
        6.30    101251.06     20.00
        6.10    101253.47     20.00
        5.90    101255.80     20.00
        5.70    101258.13     20.00
        5.50    101260.46     20.00
        5.30    101262.78     20.00
        5.10    101265.11     20.00
        4.90    101267.53     20.00
        4.70    101269.85     20.00
        4.50    101272.18     20.00
        4.30    101274.51     20.00
        4.10    101276.84     20.00
        3.90    101279.17     20.00
        3.70    101281.58     20.00
        3.50    101283.91     20.00
        3.30    101286.24     20.00
        3.10    101288.57     20.00
        2.90    101290.90     20.00
        2.70    101293.31     20.00
        2.50    101295.64     20.00


 Mass Fraction Transformation Matrix to Convert Species Mixtures (Columns) to Primitive Species (Rows)

                         AIR       REAC_FUE  PRODUCTS  WATER VA
   REAC_FUEL             0.000000  1.000000  0.000000  0.000000
   NITROGEN              0.762470  0.000000  0.672568  0.000000
   OXYGEN                0.230997  0.000000  0.000000  0.000000
   CARBON DIOXIDE        0.000591  0.000000  0.242423  0.000000
   WATER VAPOR           0.005941  0.000000  0.071286  1.000000
   CARBON MONOXIDE       0.000000  0.000000  0.000000  0.000000
   SOOT                  0.000000  0.000000  0.013724  0.000000
   HYDROGEN              0.000000  0.000000  0.000000  0.000000
   HYDROGEN CYANIDE      0.000000  0.000000  0.000000  0.000000


 Primitive Species Information

   REAC_FUEL
   Gas Species
   Molecular Weight (g/mol)           130.42922
   Ambient Density (kg/m^3)            5.422
   Enthalpy of Formation (J/kg)       -2.23E+06

   NITROGEN
   Gas Species
   Molecular Weight (g/mol)            28.01340
   Ambient Density (kg/m^3)            1.165
   Enthalpy of Formation (J/kg)        0.00E+00

   OXYGEN
   Gas Species
   Molecular Weight (g/mol)            31.99880
   Ambient Density (kg/m^3)            1.330
   Enthalpy of Formation (J/kg)        0.00E+00

   CARBON DIOXIDE
   Gas Species
   Molecular Weight (g/mol)            44.00950
   Ambient Density (kg/m^3)            1.830
   Enthalpy of Formation (J/kg)       -8.94E+06

   WATER VAPOR
   Gas Species
   Molecular Weight (g/mol)            18.01528
   Ambient Density (kg/m^3)            0.749
   Enthalpy of Formation (J/kg)       -1.34E+07

   CARBON MONOXIDE
   Gas Species
   Molecular Weight (g/mol)            28.01010
   Ambient Density (kg/m^3)            1.164
   Enthalpy of Formation (J/kg)       -3.95E+06

   SOOT
   Gas Species
   Molecular Weight (g/mol)            10.91042
   Ambient Density (kg/m^3)            0.454
   Enthalpy of Formation (J/kg)        0.00E+00

   HYDROGEN
   Gas Species
   Molecular Weight (g/mol)             2.01588
   Ambient Density (kg/m^3)            0.084
   Enthalpy of Formation (J/kg)        0.00E+00

   HYDROGEN CYANIDE
   Gas Species
   Molecular Weight (g/mol)            27.02534
   Ambient Density (kg/m^3)            1.123
   Enthalpy of Formation (J/kg)        4.92E+06


 Tracked (Lumped) Species Information

   AIR
   Molecular Weight (g/mol)            28.75198
   Ambient Density (kg/m^3)            1.195
   Initial Mass Fraction               1.000
   Enthalpy of Formation (J/kg)     -8.50E+04

   Sub Species                    Mass Fraction     Mole Fraction
   NITROGEN                       7.624699E-01      7.825727E-01
   OXYGEN                         2.309974E-01      2.075588E-01
   CARBON DIOXIDE                 5.914650E-04      3.864118E-04
   WATER VAPOR                    5.941209E-03      9.482037E-03
 
     Viscosity (kg/m/s) Ambient,  293 K:  1.80E-05
                                  500 K:  2.61E-05
                                 1000 K:  4.13E-05
                                 1500 K:  5.37E-05
   Therm. Cond. (W/m/K) Ambient,  293 K:  2.56E-02
                                  500 K:  3.81E-02
                                 1000 K:  6.69E-02
                                 1500 K:  9.25E-02
        Enthalpy (J/kg) Ambient,  293 K: -9.01E+04
                                  500 K:  1.22E+05
                                 1000 K:  6.72E+05
                                 1500 K:  1.27E+06
    Spec. Heat (J/kg/K) Ambient,  293 K:  1.02E+03
                                  500 K:  1.04E+03
                                 1000 K:  1.16E+03
                                 1500 K:  1.23E+03
   Diff. Coeff. (m^2/s) Ambient,  293 K:  1.99E-05
                                  500 K:  4.96E-05
                                 1000 K:  1.58E-04
                                 1500 K:  3.09E-04

   REAC_FUEL
   Molecular Weight (g/mol)           130.42922
   Ambient Density (kg/m^3)            5.422
   Initial Mass Fraction               0.000
   Enthalpy of Formation (J/kg)     -2.23E+06

   Sub Species                    Mass Fraction     Mole Fraction
   REAC_FUEL                      1.000000E+00      1.000000E+00
 
     Viscosity (kg/m/s) Ambient,  293 K:  3.75E-05
                                  500 K:  5.42E-05
                                 1000 K:  8.52E-05
                                 1500 K:  1.11E-04
   Therm. Cond. (W/m/K) Ambient,  293 K:  1.18E-02
                                  500 K:  1.70E-02
                                 1000 K:  2.68E-02
                                 1500 K:  3.48E-02
        Enthalpy (J/kg) Ambient,  293 K: -2.23E+06
                                  500 K: -2.19E+06
                                 1000 K: -2.08E+06
                                 1500 K: -1.96E+06
    Spec. Heat (J/kg/K) Ambient,  293 K:  2.23E+02
                                  500 K:  2.23E+02
                                 1000 K:  2.23E+02
                                 1500 K:  2.23E+02
   Diff. Coeff. (m^2/s) Ambient,  293 K:  1.55E-05
                                  500 K:  3.85E-05
                                 1000 K:  1.22E-04
                                 1500 K:  2.39E-04

   PRODUCTS
   Molecular Weight (g/mol)            28.79187
   Ambient Density (kg/m^3)            1.197
   Initial Mass Fraction               0.000
   Enthalpy of Formation (J/kg)     -3.12E+06

   Sub Species                    Mass Fraction     Mole Fraction
   NITROGEN                       6.725677E-01      6.912577E-01
   CARBON DIOXIDE                 2.424226E-01      1.585976E-01
   WATER VAPOR                    7.128586E-02      1.139285E-01
   CARBON MONOXIDE                0.000000E+00      0.000000E+00
   SOOT                           1.372384E-02      3.621629E-02
   HYDROGEN CYANIDE               0.000000E+00      0.000000E+00
 
     Viscosity (kg/m/s) Ambient,  293 K:  1.61E-05
                                  500 K:  2.39E-05
                                 1000 K:  3.88E-05
                                 1500 K:  5.10E-05
   Therm. Cond. (W/m/K) Ambient,  293 K:  2.29E-02
                                  500 K:  3.60E-02
                                 1000 K:  6.69E-02
                                 1500 K:  9.53E-02
        Enthalpy (J/kg) Ambient,  293 K: -3.13E+06
                                  500 K: -2.91E+06
                                 1000 K: -2.31E+06
                                 1500 K: -1.65E+06
    Spec. Heat (J/kg/K) Ambient,  293 K:  1.04E+03
                                  500 K:  1.11E+03
                                 1000 K:  1.27E+03
                                 1500 K:  1.37E+03
   Diff. Coeff. (m^2/s) Ambient,  293 K:  1.95E-05
                                  500 K:  4.92E-05
                                 1000 K:  1.58E-04
                                 1500 K:  3.11E-04

   WATER VAPOR
   Molecular Weight (g/mol)            18.01528
   Ambient Density (kg/m^3)            0.749
   Initial Mass Fraction               0.000
   Enthalpy of Formation (J/kg)     -1.34E+07

   Sub Species                    Mass Fraction     Mole Fraction
   WATER VAPOR                    1.000000E+00      1.000000E+00
 
     Viscosity (kg/m/s) Ambient,  293 K:  1.05E-05
                                  500 K:  1.77E-05
                                 1000 K:  3.58E-05
                                 1500 K:  5.21E-05
   Therm. Cond. (W/m/K) Ambient,  293 K:  1.96E-02
                                  500 K:  3.46E-02
                                 1000 K:  8.21E-02
                                 1500 K:  1.37E-01
        Enthalpy (J/kg) Ambient,  293 K: -1.34E+07
                                  500 K: -1.30E+07
                                 1000 K: -1.20E+07
                                 1500 K: -1.07E+07
    Spec. Heat (J/kg/K) Ambient,  293 K:  1.86E+03
                                  500 K:  1.96E+03
                                 1000 K:  2.29E+03
                                 1500 K:  2.63E+03
   Diff. Coeff. (m^2/s) Ambient,  293 K:  2.10E-05
                                  500 K:  5.78E-05
                                 1000 K:  1.98E-04
                                 1500 K:  3.95E-04
 
   Liq. Enthalpy (J/kg)     Melt  273 K: -1.60E+07
                                  323 K: -1.58E+07
                            Boil  373 K: -1.56E+07
 
   Liq. Spec. Heat (J/kg/K) Melt  273 K:  4.23E+03
                                  323 K:  4.18E+03
                            Boil  373 K:  4.22E+03
 
   Heat of Vapor. (J/kg)    Melt  273 K:  2.50E+06
                                  323 K:  2.39E+06
                            Boil  373 K:  2.27E+06


 Gas Phase Reaction Information

      Fuel                                           Heat of Combustion (kJ/kg)
      REAC_FUEL                                                      20000.0000

      Primitive Species Stoich. Coeff.
      Species ID                                                          Molar
      REAC_FUEL                                                       -1.000000
      NITROGEN                                                         0.500000
      OXYGEN                                                          -5.919204
      CARBON DIOXIDE                                                   5.224090
      WATER VAPOR                                                      3.490227
      SOOT                                                             1.195455

      Tracked (Lumped) Species Stoich. Coeff.
      Species ID                                             Molar         Mass
      AIR                                               -28.518200    -6.286588
      REAC_FUEL                                          -1.000000    -1.000000
      PRODUCTS                                           33.008769     7.286588

      Reaction Kinetics

      Fast chemistry

      ODE Solver:  EXPLICIT EULER
      Extinction Model:  EXTINCTION 2
      Auto-Ignition Temperature (K):       0.0
      Critical Flame Temperature (K):   1700.2

      Prescribed Radiative Fraction:     0.350


 Material Information

   1 GYPSUM PLASTER
     Quintiere, Fire Behavior - NIST NRC Validation
     Emissivity                      0.900
     Density (kg/m3)                1440.0
     Specific Heat (kJ/kg/K)       8.40E-01
     Conductivity (W/m/K)          4.80E-01


 Surface Conditions

   0 INERT

   1 Plasterboard (DEFAULT)
     Material List
          1  GYPSUM PLASTER
     Layer  1
        Thickness   (m):  0.05000
        Density (kg/m3):  1440.00
        GYPSUM PLASTER, Mass fraction:    1.00
     Total surface density    72.000 kg/m2
     Solid Phase Node, Layer, Coordinates(m):
                    0      1       0.0000000
                    1      1       0.0005319
                    2      1       0.0015957
                    3      1       0.0037234
                    4      1       0.0079787
                    5      1       0.0164894
                    6      1       0.0335106
                    7      1       0.0420213
                    8      1       0.0462766
                    9      1       0.0484043
                   10      1       0.0494681
                   11      1       0.0500000
     Backing to void

   2 fire
     HRR Per Unit Area (kW/m2)        445.0
     REAC_FUEL Mass Flux (kg/s/m2)   2.22E-02

   3 extract
     Volume Flow     (m^3/s)     5.00E+00
     AIR Mass Fraction         1.000

   4 OPEN
     Passive Vent to Atmosphere

   5 MIRROR
     Symmetry Plane

   6 INTERPOLATED

   7 PERIODIC

   8 HVAC

   9 MASSLESS TRACER

  10 DROPLET

  11 MASSLESS TARGET

  12 PERIODIC FLOW ONLY


 Lagrangian Particle Classes

   1 Water01
     SURFace ID: DROPLET
     # Reals: 83
     # Integers: 26
     # Logicals: 5


 PROPerty Information

   1 BS 9251
     Flow Rate (L/min)              28.28
     Particle Class              Water01
     Smokeview ID                nozzle


 Cut-off Density and Temperature

    Minimum Temperature:   -10.0 C
    Maximum Temperature:  2726.8 C
    Minimum Density:  1.195E-01 kg/m3
    Maximum Density:  1.208E+01 kg/m3


 Device Information

   1 ID: SPRK1
     QUANTITY: TIME
     Coordinates (X,Y,Z):    1.600000E+01    4.800000E+00    2.300000E+00
     TEMPORAL STATISTIC: TIME AVERAGE
  Property ID: BS 9251
   2 ID: SPRK01
     QUANTITY: TIME
     Coordinates (X,Y,Z):    1.600000E+01    1.800000E+00    2.300000E+00
     TEMPORAL STATISTIC: TIME AVERAGE
  Property ID: BS 9251
   3 ID: cc_FSA_temp_2m
     QUANTITY: TEMPERATURE
     Coordinates (X,Y,Z):    1.640000E+01    8.200000E+00    1.500000E+00
     TEMPORAL STATISTIC: TIME AVERAGE
   4 ID: stair_temp_5
     QUANTITY: TEMPERATURE
     Coordinates (X,Y,Z):    1.620000E+01    9.000000E+00    2.100000E+00
     TEMPORAL STATISTIC: TIME AVERAGE
   5 ID: stair_vis_1
     QUANTITY: VISIBILITY
     Species ID: SOOT
     Coordinates (X,Y,Z):    1.620000E+01    9.000000E+00    6.000000E-01
     TEMPORAL STATISTIC: TIME AVERAGE
   6 ID: stair_vis_2
     QUANTITY: VISIBILITY
     Species ID: SOOT
     Coordinates (X,Y,Z):    1.620000E+01    9.000000E+00    1.100000E+00
     TEMPORAL STATISTIC: TIME AVERAGE
   7 ID: stair_vis_3
     QUANTITY: VISIBILITY
     Species ID: SOOT
     Coordinates (X,Y,Z):    1.620000E+01    9.000000E+00    1.600000E+00
     TEMPORAL STATISTIC: TIME AVERAGE
   8 ID: stair_vis_4
     QUANTITY: VISIBILITY
     Species ID: SOOT
     Coordinates (X,Y,Z):    1.620000E+01    9.000000E+00    1.900000E+00
     TEMPORAL STATISTIC: TIME AVERAGE
   9 ID: stair_vis_5
     QUANTITY: VISIBILITY
     Species ID: SOOT
     Coordinates (X,Y,Z):    1.620000E+01    9.000000E+00    2.100000E+00
     TEMPORAL STATISTIC: TIME AVERAGE
  10 ID: stair_temp_1
     QUANTITY: TEMPERATURE
     Coordinates (X,Y,Z):    1.620000E+01    9.000000E+00    6.000000E-01
     TEMPORAL STATISTIC: TIME AVERAGE
  11 ID: stair_temp_2
     QUANTITY: TEMPERATURE
     Coordinates (X,Y,Z):    1.620000E+01    9.000000E+00    1.100000E+00
     TEMPORAL STATISTIC: TIME AVERAGE
  12 ID: stair_temp_3
     QUANTITY: TEMPERATURE
     Coordinates (X,Y,Z):    1.620000E+01    9.000000E+00    1.600000E+00
     TEMPORAL STATISTIC: TIME AVERAGE
  13 ID: stair_temp_4
     QUANTITY: TEMPERATURE
     Coordinates (X,Y,Z):    1.620000E+01    9.000000E+00    1.900000E+00
     TEMPORAL STATISTIC: TIME AVERAGE
  14 ID: stair_temp_10
     QUANTITY: TEMPERATURE
     Coordinates (X,Y,Z):    1.620000E+01    1.000000E+01    2.100000E+00
     TEMPORAL STATISTIC: TIME AVERAGE
  15 ID: stair_vis_6
     QUANTITY: VISIBILITY
     Species ID: SOOT
     Coordinates (X,Y,Z):    1.620000E+01    1.000000E+01    6.000000E-01
     TEMPORAL STATISTIC: TIME AVERAGE
  16 ID: stair_vis_7
     QUANTITY: VISIBILITY
     Species ID: SOOT
     Coordinates (X,Y,Z):    1.620000E+01    1.000000E+01    1.100000E+00
     TEMPORAL STATISTIC: TIME AVERAGE
  17 ID: stair_vis_8
     QUANTITY: VISIBILITY
     Species ID: SOOT
     Coordinates (X,Y,Z):    1.620000E+01    1.000000E+01    1.600000E+00
     TEMPORAL STATISTIC: TIME AVERAGE
  18 ID: stair_vis_9
     QUANTITY: VISIBILITY
     Species ID: SOOT
     Coordinates (X,Y,Z):    1.620000E+01    1.000000E+01    1.900000E+00
     TEMPORAL STATISTIC: TIME AVERAGE
  19 ID: stair_vis_10
     QUANTITY: VISIBILITY
     Species ID: SOOT
     Coordinates (X,Y,Z):    1.620000E+01    1.000000E+01    2.100000E+00
     TEMPORAL STATISTIC: TIME AVERAGE
  20 ID: stair_temp_6
     QUANTITY: TEMPERATURE
     Coordinates (X,Y,Z):    1.620000E+01    1.000000E+01    6.000000E-01
     TEMPORAL STATISTIC: TIME AVERAGE
  21 ID: stair_temp_7
     QUANTITY: TEMPERATURE
     Coordinates (X,Y,Z):    1.620000E+01    1.000000E+01    1.100000E+00
     TEMPORAL STATISTIC: TIME AVERAGE
  22 ID: stair_temp_8
     QUANTITY: TEMPERATURE
     Coordinates (X,Y,Z):    1.620000E+01    1.000000E+01    1.600000E+00
     TEMPORAL STATISTIC: TIME AVERAGE
  23 ID: stair_temp_9
     QUANTITY: TEMPERATURE
     Coordinates (X,Y,Z):    1.620000E+01    1.000000E+01    1.900000E+00
     TEMPORAL STATISTIC: TIME AVERAGE
  24 ID: cc_pres_16
     QUANTITY: PRESSURE
     Coordinates (X,Y,Z):    1.940000E+01    7.400000E+00    1.900000E+00
     TEMPORAL STATISTIC: TIME AVERAGE
  25 ID: cc_pres_1
     QUANTITY: PRESSURE
     Coordinates (X,Y,Z):    7.900000E+00    7.400000E+00    4.000000E-01
     TEMPORAL STATISTIC: TIME AVERAGE
  26 ID: cc_pres_2
     QUANTITY: PRESSURE
     Coordinates (X,Y,Z):    7.900000E+00    7.400000E+00    9.000000E-01
     TEMPORAL STATISTIC: TIME AVERAGE
  27 ID: cc_pres_3
     QUANTITY: PRESSURE
     Coordinates (X,Y,Z):    7.900000E+00    7.400000E+00    1.400000E+00
     TEMPORAL STATISTIC: TIME AVERAGE
  28 ID: cc_pres_4
     QUANTITY: PRESSURE
     Coordinates (X,Y,Z):    7.900000E+00    7.400000E+00    1.900000E+00
     TEMPORAL STATISTIC: TIME AVERAGE
  29 ID: cc_pres_5
     QUANTITY: PRESSURE
     Coordinates (X,Y,Z):    4.200000E+00    7.400000E+00    4.000000E-01
     TEMPORAL STATISTIC: TIME AVERAGE
  30 ID: cc_pres_6
     QUANTITY: PRESSURE
     Coordinates (X,Y,Z):    4.200000E+00    7.400000E+00    9.000000E-01
     TEMPORAL STATISTIC: TIME AVERAGE
  31 ID: cc_pres_7
     QUANTITY: PRESSURE
     Coordinates (X,Y,Z):    4.200000E+00    7.400000E+00    1.400000E+00
     TEMPORAL STATISTIC: TIME AVERAGE
  32 ID: cc_pres_8
     QUANTITY: PRESSURE
     Coordinates (X,Y,Z):    4.200000E+00    7.400000E+00    1.900000E+00
     TEMPORAL STATISTIC: TIME AVERAGE
  33 ID: cc_pres_9
     QUANTITY: PRESSURE
     Coordinates (X,Y,Z):    1.410000E+01    7.400000E+00    4.000000E-01
     TEMPORAL STATISTIC: TIME AVERAGE
  34 ID: cc_pres_10
     QUANTITY: PRESSURE
     Coordinates (X,Y,Z):    1.410000E+01    7.400000E+00    9.000000E-01
     TEMPORAL STATISTIC: TIME AVERAGE
  35 ID: cc_pres_11
     QUANTITY: PRESSURE
     Coordinates (X,Y,Z):    1.410000E+01    7.400000E+00    1.400000E+00
     TEMPORAL STATISTIC: TIME AVERAGE
  36 ID: cc_pres_12
     QUANTITY: PRESSURE
     Coordinates (X,Y,Z):    1.410000E+01    7.400000E+00    1.900000E+00
     TEMPORAL STATISTIC: TIME AVERAGE
  37 ID: cc_pres_13
     QUANTITY: PRESSURE
     Coordinates (X,Y,Z):    1.940000E+01    7.400000E+00    4.000000E-01
     TEMPORAL STATISTIC: TIME AVERAGE
  38 ID: cc_pres_14
     QUANTITY: PRESSURE
     Coordinates (X,Y,Z):    1.940000E+01    7.400000E+00    9.000000E-01
     TEMPORAL STATISTIC: TIME AVERAGE
  39 ID: cc_pres_15
     QUANTITY: PRESSURE
     Coordinates (X,Y,Z):    1.940000E+01    7.400000E+00    1.400000E+00
     TEMPORAL STATISTIC: TIME AVERAGE
  40 ID: Apt_Door_FF->OUT->OUT->OUT
     QUANTITY: TIME
     Coordinates (X,Y,Z):    1.570100E+01    8.802000E+00    2.402000E+00
     TEMPORAL STATISTIC: TIME AVERAGE
  41 ID: Stair_Door_FF->OUT->OUT->OUT
     QUANTITY: TIME
     Coordinates (X,Y,Z):    1.570100E+01    8.802000E+00    2.402000E+00
     TEMPORAL STATISTIC: TIME AVERAGE


 Slice File Information, Mesh     1

   1 Nodes:   5   5   0  28   0  93, Quantity: SOOT VISIBILITY
   2 Nodes:   5   5   0  28   0  93, Quantity: TEMPERATURE


 Radiation Model Information

   Number of control angles  104
   Time step increment         3
   Angle increment             5
   Theta band N_phi   Solid angle
     1:        4     0.120
     2:       12     0.114
     3:       16     0.127
     4:       20     0.120
     5:       20     0.120
     6:       16     0.127
     7:       12     0.114
     8:        4     0.120
   Using gray gas absorption.
   Mean beam length  1.000E-01 m
 
 

 Run Time Diagnostics

       Time Step       1   November 18, 2022  13:40:58
       Step Size:    0.261E-01 s, Total Time:       0.03 s
       Pressure Iterations: 7
       Maximum Velocity Error:  0.47E-01 on Mesh 4 at (4,0,24)
       Maximum Pressure Error:  0.20E-02 on Mesh 5 at (3,7,24)
       ---------------------------------------------------------------
       Mesh    1
       Max CFL number:  0.47E-02 at (12,10,13)
       Max divergence:  0.24E-05 at (23,7,5)
       Min divergence: -0.22E-05 at (7,27,9)
       Max VN number:   0.62E-02 at (25,26,62)
       Mesh    2
       Max CFL number:  0.70E-02 at (8,20,45)
       Max divergence:  0.19E-05 at (5,29,2)
       Min divergence: -0.19E-05 at (20,46,43)
       Max VN number:   0.91E-02 at (20,54,28)
       Mesh    3
       Max CFL number:  0.50E-02 at (8,7,23)
       Max divergence:  0.22E-05 at (10,27,25)
       Min divergence: -0.26E-05 at (15,4,13)
       Max VN number:   0.64E-02 at (3,15,61)
       Mesh    4
       Max CFL number:  0.40E-01 at (7,1,15)
       Max divergence:  0.22E-02 at (7,1,14)
       Min divergence: -0.13E-05 at (37,8,23)
       Max VN number:   0.97E-02 at (34,27,21)
       Mesh    5
       Max CFL number:  0.10E-01 at (77,3,19)
       Max divergence:  0.22E-02 at (36,8,2)
       Min divergence:  0.22E-02 at (21,13,23)
       Max VN number:   0.88E-02 at (32,14,9)
       Mesh    6
       Max CFL number:  0.67E-02 at (13,9,18)
       Max divergence:  0.22E-02 at (7,4,2)
       Min divergence: -0.83E-06 at (19,16,21)
       Max VN number:   0.72E-02 at (2,14,12)
       Mesh    7
       Max CFL number:  0.67E-02 at (31,43,4)
       Max divergence:  0.20E-05 at (11,2,2)
       Min divergence: -0.35E-02 at (13,26,3)
       Max VN number:   0.90E-02 at (31,20,2)
       Radiation Loss to Boundaries:        -0.003 kW
 
       Time Step       2   November 18, 2022  13:40:58
       Step Size:    0.261E-01 s, Total Time:       0.05 s
       Pressure Iterations: 7
       Maximum Velocity Error:  0.50E-01 on Mesh 4 at (4,0,24)
       Maximum Pressure Error:  0.91E-01 on Mesh 5 at (3,14,3)
       ---------------------------------------------------------------
       Mesh    1
       Max CFL number:  0.46E-02 at (12,10,13)
       Max divergence:  0.24E-05 at (23,7,5)
       Min divergence: -0.22E-05 at (7,27,9)
       Max VN number:   0.67E-02 at (25,10,11)
       Mesh    2
       Max CFL number:  0.70E-02 at (8,20,45)
       Max divergence:  0.19E-05 at (5,29,2)
       Min divergence: -0.19E-05 at (20,46,43)
       Max VN number:   0.85E-02 at (20,54,28)
       Mesh    3
       Max CFL number:  0.50E-02 at (8,7,23)
       Max divergence:  0.22E-05 at (10,27,25)
       Min divergence: -0.26E-05 at (15,4,13)
       Max VN number:   0.56E-02 at (25,4,37)
       Mesh    4
       Max CFL number:  0.91E-01 at (7,1,15)
       Max divergence:  0.18E-05 at (34,9,2)
       Min divergence: -0.86E-04 at (24,21,23)
       Max VN number:   0.19E-01 at (4,5,20)
       Mesh    5
       Max CFL number:  0.20E-01 at (77,2,23)
       Max divergence: -0.83E-04 at (36,8,2)
       Min divergence: -0.87E-04 at (21,13,23)
       Max VN number:   0.82E-02 at (10,2,9)
       Mesh    6
       Max CFL number:  0.74E-02 at (4,7,10)
       Max divergence:  0.53E-06 at (19,16,10)
       Min divergence: -0.87E-04 at (13,3,23)
       Max VN number:   0.69E-02 at (19,3,9)
       Mesh    7
       Max CFL number:  0.67E-02 at (31,43,4)
       Max divergence:  0.78E-01 at (12,28,3)
       Min divergence: -0.12E-04 at (37,51,10)
       Max VN number:   0.74E-02 at (33,6,4)
       Total Heat Release Rate:              6.482 kW
       Radiation Loss to Boundaries:        -0.003 kW
 
       Time Step       3   November 18, 2022  13:40:59
       Step Size:    0.261E-01 s, Total Time:       0.08 s
       Pressure Iterations: 4
       Maximum Velocity Error:  0.49E-01 on Mesh 4 at (0,9,24)
       Maximum Pressure Error:  0.98E-01 on Mesh 5 at (3,14,8)
       ---------------------------------------------------------------
       Mesh    1
       Max CFL number:  0.46E-02 at (12,10,13)
       Max divergence:  0.24E-05 at (23,7,5)
       Min divergence: -0.22E-05 at (7,27,9)
       Max VN number:   0.67E-02 at (25,10,11)
       Mesh    2
       Max CFL number:  0.70E-02 at (8,20,45)
       Max divergence:  0.19E-05 at (5,29,2)
       Min divergence: -0.19E-05 at (20,46,43)
       Max VN number:   0.84E-02 at (20,54,28)
       Mesh    3
       Max CFL number:  0.50E-02 at (8,7,23)
       Max divergence:  0.22E-05 at (10,27,25)
       Min divergence: -0.26E-05 at (15,4,13)
       Max VN number:   0.56E-02 at (25,4,37)
       Mesh    4
       Max CFL number:  0.14E+00 at (5,1,15)
       Max divergence:  0.18E-05 at (34,9,2)
       Min divergence: -0.84E-04 at (46,14,23)
       Max VN number:   0.44E-01 at (4,5,20)
       Mesh    5
       Max CFL number:  0.20E-01 at (77,2,23)
       Max divergence: -0.80E-04 at (77,2,10)
       Min divergence: -0.85E-04 at (21,13,23)
       Max VN number:   0.82E-02 at (10,2,9)
       Mesh    6
       Max CFL number:  0.64E-02 at (13,9,18)
       Max divergence:  0.53E-06 at (19,16,10)
       Min divergence: -0.85E-04 at (13,3,23)
       Max VN number:   0.69E-02 at (19,3,9)
       Mesh    7
       Max CFL number:  0.85E-02 at (12,35,3)
       Max divergence:  0.18E+00 at (24,40,3)
       Min divergence: -0.76E-05 at (37,34,10)
       Max VN number:   0.74E-02 at (33,6,4)
       No. of Lagrangian Particles:  260
       Total Heat Release Rate:             15.098 kW
       Radiation Loss to Boundaries:        -1.132 kW
 
       Time Step       4   November 18, 2022  13:40:59
       Step Size:    0.261E-01 s, Total Time:       0.10 s
       Pressure Iterations: 10
       Maximum Velocity Error:  0.57E-01 on Mesh 5 at (77,2,1)
       Maximum Pressure Error:  0.57E-01 on Mesh 7 at (10,26,3)
       ---------------------------------------------------------------
       Mesh    1
       Max CFL number:  0.46E-02 at (12,10,13)
       Max divergence:  0.24E-05 at (23,7,5)
       Min divergence: -0.22E-05 at (7,27,9)
       Max VN number:   0.67E-02 at (25,10,11)
       Mesh    2
       Max CFL number:  0.70E-02 at (8,20,45)
       Max divergence:  0.19E-05 at (5,29,2)
       Min divergence: -0.19E-05 at (20,46,43)
       Max VN number:   0.84E-02 at (20,54,28)
       Mesh    3
       Max CFL number:  0.50E-02 at (8,7,23)
       Max divergence:  0.22E-05 at (10,27,25)
       Min divergence: -0.26E-05 at (15,4,13)
       Max VN number:   0.56E-02 at (25,4,37)
       Mesh    4
       Max CFL number:  0.19E+00 at (5,1,15)
       Max divergence:  0.19E-05 at (34,9,2)
       Min divergence: -0.82E-04 at (46,14,23)
       Max VN number:   0.70E-01 at (4,5,23)
       Mesh    5
       Max CFL number:  0.29E-01 at (77,2,23)
       Max divergence: -0.77E-04 at (77,2,10)
       Min divergence: -0.82E-04 at (21,13,23)
       Max VN number:   0.81E-02 at (10,2,9)
       Mesh    6
       Max CFL number:  0.64E-02 at (13,9,18)
       Max divergence:  0.52E-06 at (19,16,10)
       Min divergence: -0.83E-04 at (13,3,23)
       Max VN number:   0.69E-02 at (19,3,9)
       Mesh    7
       Max CFL number:  0.14E-01 at (24,34,3)
       Max divergence:  0.31E+00 at (24,26,3)
       Min divergence: -0.76E-05 at (37,34,10)
       Max VN number:   0.84E-02 at (25,38,2)
       No. of Lagrangian Particles:  520
       Total Heat Release Rate:             25.995 kW
       Radiation Loss to Boundaries:        -2.765 kW
 
       Time Step       5   November 18, 2022  13:41:00
       Step Size:    0.261E-01 s, Total Time:       0.13 s
       Pressure Iterations: 10
       Maximum Velocity Error:  0.64E-01 on Mesh 4 at (0,8,1)
       Maximum Pressure Error:  0.17E+00 on Mesh 7 at (10,33,3)
       ---------------------------------------------------------------
       Mesh    1
       Max CFL number:  0.46E-02 at (12,10,13)
       Max divergence:  0.24E-05 at (23,7,5)
       Min divergence: -0.22E-05 at (7,27,9)
       Max VN number:   0.67E-02 at (25,10,11)
       Mesh    2
       Max CFL number:  0.89E-02 at (3,1,51)
       Max divergence:  0.19E-05 at (5,29,2)
       Min divergence: -0.23E-05 at (5,1,52)
       Max VN number:   0.84E-02 at (20,54,28)
       Mesh    3
       Max CFL number:  0.50E-02 at (8,7,23)
       Max divergence:  0.22E-05 at (10,27,25)
       Min divergence: -0.26E-05 at (15,4,13)
       Max VN number:   0.56E-02 at (25,4,37)
       Mesh    4
       Max CFL number:  0.24E+00 at (5,1,15)
       Max divergence:  0.19E-05 at (34,9,2)
       Min divergence: -0.80E-04 at (46,14,23)
       Max VN number:   0.99E-01 at (4,5,23)
       Mesh    5
       Max CFL number:  0.37E-01 at (77,2,23)
       Max divergence: -0.74E-04 at (77,2,10)
       Min divergence: -0.80E-04 at (21,13,23)
       Max VN number:   0.82E-02 at (71,2,10)
       Mesh    6
       Max CFL number:  0.64E-02 at (13,9,18)
       Max divergence:  0.53E-06 at (19,16,10)
       Min divergence: -0.81E-04 at (13,3,23)
       Max VN number:   0.69E-02 at (19,3,9)
       Mesh    7
       Max CFL number:  0.23E-01 at (17,46,23)
       Max divergence:  0.47E+00 at (24,40,3)
       Min divergence: -0.76E-05 at (37,34,10)
       Max VN number:   0.73E-02 at (33,6,4)
       No. of Lagrangian Particles:  780
       Total Heat Release Rate:             39.617 kW
       Radiation Loss to Boundaries:        -3.848 kW
 
       Time Step       6   November 18, 2022  13:41:02
       Step Size:    0.261E-01 s, Total Time:       0.16 s
       Pressure Iterations: 10
       Maximum Velocity Error:  0.65E-01 on Mesh 4 at (0,8,1)
       Maximum Pressure Error:  0.26E+00 on Mesh 7 at (10,26,3)
       ---------------------------------------------------------------
       Mesh    1
       Max CFL number:  0.46E-02 at (12,10,13)
       Max divergence:  0.24E-05 at (23,7,5)
       Min divergence: -0.22E-05 at (7,27,9)
       Max VN number:   0.67E-02 at (25,10,11)
       Mesh    2
       Max CFL number:  0.18E-01 at (9,7,51)
       Max divergence:  0.19E-05 at (5,4,32)
       Min divergence: -0.36E-05 at (5,1,52)
       Max VN number:   0.84E-02 at (20,54,28)
       Mesh    3
       Max CFL number:  0.50E-02 at (8,7,23)
       Max divergence:  0.22E-05 at (10,27,25)
       Min divergence: -0.26E-05 at (15,4,13)
       Max VN number:   0.56E-02 at (25,4,37)
       Mesh    4
       Max CFL number:  0.29E+00 at (5,1,15)
       Max divergence:  0.19E-05 at (34,9,2)
       Min divergence: -0.79E-04 at (46,25,6)
       Max VN number:   0.13E+00 at (4,5,23)
       Mesh    5
       Max CFL number:  0.44E-01 at (77,2,24)
       Max divergence: -0.72E-04 at (77,2,10)
       Min divergence: -0.78E-04 at (21,13,23)
       Max VN number:   0.81E-02 at (10,2,9)
       Mesh    6
       Max CFL number:  0.64E-02 at (13,9,18)
       Max divergence:  0.53E-06 at (19,16,10)
       Min divergence: -0.79E-04 at (13,3,23)
       Max VN number:   0.69E-02 at (19,3,9)
       Mesh    7
       Max CFL number:  0.46E-01 at (17,46,23)
       Max divergence:  0.65E+00 at (24,40,3)
       Min divergence: -0.21E-04 at (16,45,23)
       Max VN number:   0.12E-01 at (16,49,23)
       No. of Lagrangian Particles:  1040
       Total Heat Release Rate:             54.881 kW
       Radiation Loss to Boundaries:        -4.685 kW
 
       Time Step       7   November 18, 2022  13:41:03
       Step Size:    0.261E-01 s, Total Time:       0.18 s
       Pressure Iterations: 10
       Maximum Velocity Error:  0.64E-01 on Mesh 4 at (0,8,24)
       Maximum Pressure Error:  0.41E+00 on Mesh 7 at (10,26,3)
       ---------------------------------------------------------------
       Mesh    1
       Max CFL number:  0.50E-02 at (15,10,3)
       Max divergence:  0.24E-05 at (23,7,5)
       Min divergence: -0.25E-05 at (6,4,1)
       Max VN number:   0.67E-02 at (25,10,11)
       Mesh    2
       Max CFL number:  0.38E-01 at (9,7,51)
       Max divergence:  0.24E-05 at (14,16,30)
       Min divergence: -0.55E-05 at (4,7,52)
       Max VN number:   0.30E-01 at (9,6,51)
       Mesh    3
       Max CFL number:  0.50E-02 at (8,7,23)
       Max divergence:  0.22E-05 at (10,27,25)
       Min divergence: -0.26E-05 at (15,4,13)
       Max VN number:   0.56E-02 at (25,4,37)
       Mesh    4
       Max CFL number:  0.33E+00 at (5,1,15)
       Max divergence:  0.19E-05 at (34,9,2)
       Min divergence: -0.82E-04 at (46,25,20)
       Max VN number:   0.16E+00 at (4,5,23)
       Mesh    5
       Max CFL number:  0.51E-01 at (77,2,24)
       Max divergence: -0.69E-04 at (77,2,10)
       Min divergence: -0.76E-04 at (21,13,23)
       Max VN number:   0.81E-02 at (10,2,9)
       Mesh    6
       Max CFL number:  0.64E-02 at (13,9,18)
       Max divergence:  0.53E-06 at (19,16,10)
       Min divergence: -0.77E-04 at (13,3,23)
       Max VN number:   0.69E-02 at (19,3,9)
       Mesh    7
       Max CFL number:  0.97E-01 at (17,46,23)
       Max divergence:  0.83E+00 at (24,40,3)
       Min divergence: -0.75E-04 at (22,19,22)
       Max VN number:   0.25E-01 at (16,49,23)
       No. of Lagrangian Particles:  1300
       Total Heat Release Rate:             71.592 kW
       Radiation Loss to Boundaries:        -5.796 kW
 
       Time Step       8   November 18, 2022  13:41:04
       Step Size:    0.261E-01 s, Total Time:       0.21 s
       Pressure Iterations: 10
       Maximum Velocity Error:  0.62E-01 on Mesh 4 at (0,8,24)
       Maximum Pressure Error:  0.66E+00 on Mesh 7 at (10,26,3)
       ---------------------------------------------------------------
       Mesh    1
       Max CFL number:  0.70E-02 at (11,5,1)
       Max divergence:  0.23E-05 at (23,7,5)
       Min divergence: -0.36E-05 at (6,4,1)
       Max VN number:   0.68E-02 at (25,10,11)
       Mesh    2
       Max CFL number:  0.67E-01 at (9,7,51)
       Max divergence:  0.39E-05 at (14,16,30)
       Min divergence: -0.90E-05 at (4,7,52)
       Max VN number:   0.62E-01 at (9,6,51)
       Mesh    3
       Max CFL number:  0.50E-02 at (8,7,23)
       Max divergence:  0.22E-05 at (10,27,25)
       Min divergence: -0.26E-05 at (15,4,13)
       Max VN number:   0.56E-02 at (25,4,37)
       Mesh    4
       Max CFL number:  0.38E+00 at (5,1,15)
       Max divergence:  0.11E-04 at (5,1,14)
       Min divergence: -0.89E-04 at (46,25,20)
       Max VN number:   0.20E+00 at (4,5,23)
       Mesh    5
       Max CFL number:  0.59E-01 at (77,2,24)
       Max divergence: -0.67E-04 at (77,3,12)
       Min divergence: -0.74E-04 at (21,13,23)
       Max VN number:   0.81E-02 at (10,2,9)
       Mesh    6
       Max CFL number:  0.66E-02 at (2,2,14)
       Max divergence:  0.53E-06 at (19,16,10)
       Min divergence: -0.75E-04 at (13,3,23)
       Max VN number:   0.69E-02 at (19,3,9)
       Mesh    7
       Max CFL number:  0.20E+00 at (17,46,23)
       Max divergence:  0.10E+01 at (24,40,3)
       Min divergence: -0.17E-03 at (17,52,22)
       Max VN number:   0.52E-01 at (16,16,24)
       No. of Lagrangian Particles:  1560
       Total Heat Release Rate:             89.459 kW
       Radiation Loss to Boundaries:        -7.230 kW
 
       Time Step       9   November 18, 2022  13:41:05
       Step Size:    0.261E-01 s, Total Time:       0.23 s
       Pressure Iterations: 10
       Maximum Velocity Error:  0.59E-01 on Mesh 4 at (0,8,24)
       Maximum Pressure Error:  0.11E+01 on Mesh 7 at (10,26,3)
       ---------------------------------------------------------------
       Mesh    1
       Max CFL number:  0.10E-01 at (14,10,3)
       Max divergence:  0.24E-05 at (21,13,2)
       Min divergence: -0.50E-05 at (6,4,1)
       Max VN number:   0.72E-02 at (17,3,1)
       Mesh    2
       Max CFL number:  0.10E+00 at (9,7,51)
       Max divergence:  0.63E-05 at (13,16,31)
       Min divergence: -0.13E-04 at (4,7,52)
       Max VN number:   0.11E+00 at (9,6,51)
       Mesh    3
       Max CFL number:  0.50E-02 at (8,7,23)
       Max divergence:  0.22E-05 at (10,27,25)
       Min divergence: -0.26E-05 at (15,4,13)
       Max VN number:   0.56E-02 at (25,4,37)
       Mesh    4
       Max CFL number:  0.43E+00 at (5,1,15)
       Max divergence:  0.27E-04 at (46,26,21)
       Min divergence: -0.10E-03 at (46,25,20)
       Max VN number:   0.23E+00 at (4,5,23)
       Mesh    5
       Max CFL number:  0.67E-01 at (77,2,24)
       Max divergence: -0.64E-04 at (77,3,12)
       Min divergence: -0.73E-04 at (21,13,23)
       Max VN number:   0.81E-02 at (10,2,9)
       Mesh    6
       Max CFL number:  0.69E-02 at (1,2,14)
       Max divergence:  0.53E-06 at (19,16,10)
       Min divergence: -0.73E-04 at (13,3,23)
       Max VN number:   0.69E-02 at (19,3,9)
       Mesh    7
       Max CFL number:  0.36E+00 at (17,46,23)
       Max divergence:  0.12E+01 at (24,40,3)
       Min divergence: -0.95E-03 at (19,47,22)
       Max VN number:   0.98E-01 at (16,16,24)
       No. of Lagrangian Particles:  1820
       Total Heat Release Rate:            108.259 kW
       Radiation Loss to Boundaries:        -8.670 kW
 
       Time Step      10   November 18, 2022  13:41:06
       Step Size:    0.261E-01 s, Total Time:       0.26 s
       Pressure Iterations: 10
       Maximum Velocity Error:  0.57E-01 on Mesh 4 at (68,8,24)
       Maximum Pressure Error:  0.94E+00 on Mesh 7 at (10,26,3)
       ---------------------------------------------------------------
       Mesh    1
       Max CFL number:  0.16E-01 at (14,9,3)
       Max divergence:  0.27E-05 at (21,13,2)
       Min divergence: -0.67E-05 at (6,4,1)
       Max VN number:   0.15E-01 at (13,9,4)
       Mesh    2
       Max CFL number:  0.15E+00 at (9,7,51)
       Max divergence:  0.96E-05 at (13,16,30)
       Min divergence: -0.19E-04 at (2,7,52)
       Max VN number:   0.17E+00 at (9,6,51)
       Mesh    3
       Max CFL number:  0.50E-02 at (8,7,23)
       Max divergence:  0.22E-05 at (10,27,25)
       Min divergence: -0.26E-05 at (15,4,13)
       Max VN number:   0.56E-02 at (25,4,37)
       Mesh    4
       Max CFL number:  0.48E+00 at (5,1,15)
       Max divergence:  0.84E-04 at (46,26,21)
       Min divergence: -0.13E-03 at (46,25,20)
       Max VN number:   0.28E+00 at (14,10,23)
       Mesh    5
       Max CFL number:  0.76E-01 at (77,2,24)
       Max divergence: -0.62E-04 at (77,3,12)
       Min divergence: -0.71E-04 at (21,13,23)
       Max VN number:   0.81E-02 at (10,2,9)
       Mesh    6
       Max CFL number:  0.72E-02 at (1,2,14)
       Max divergence:  0.53E-06 at (19,16,10)
       Min divergence: -0.71E-04 at (13,3,23)
       Max VN number:   0.69E-02 at (19,3,9)
       Mesh    7
       Max CFL number:  0.48E+00 at (19,47,23)
       Max divergence:  0.14E+01 at (24,40,3)
       Min divergence: -0.28E-02 at (23,50,19)
       Max VN number:   0.15E+00 at (16,16,24)
       No. of Lagrangian Particles:  2080
       Total Heat Release Rate:            127.779 kW
       Radiation Loss to Boundaries:       -13.008 kW
 
       Time Step      20   November 18, 2022  13:41:16
       Step Size:    0.220E-01 s, Total Time:       0.52 s
       Pressure Iterations: 5
       Maximum Velocity Error:  0.84E-01 on Mesh 4 at (68,28,24)
       Maximum Pressure Error:  0.20E+02 on Mesh 7 at (16,33,3)
       ---------------------------------------------------------------
       Mesh    1
       Max CFL number:  0.96E-01 at (14,9,3)
       Max divergence:  0.65E-05 at (25,15,1)
       Min divergence: -0.41E-04 at (12,9,2)
       Max VN number:   0.12E+00 at (14,10,2)
       Mesh    2
       Max CFL number:  0.52E+00 at (9,7,51)
       Max divergence:  0.59E-04 at (13,16,31)
       Min divergence: -0.12E-03 at (8,7,51)
       Max VN number:   0.77E+00 at (9,6,51)
       Mesh    3
       Max CFL number:  0.16E-01 at (13,10,1)
       Max divergence:  0.26E-05 at (15,5,2)
       Min divergence: -0.64E-05 at (13,9,1)
       Max VN number:   0.20E-01 at (13,11,2)
       Mesh    4
       Max CFL number:  0.76E+00 at (5,1,15)
       Max divergence:  0.23E-03 at (46,26,21)
       Min divergence: -0.11E-03 at (52,25,5)
       Max VN number:   0.68E+00 at (46,27,21)
       Mesh    5
       Max CFL number:  0.13E+00 at (77,2,24)
       Max divergence: -0.41E-04 at (77,2,14)
       Min divergence: -0.55E-04 at (21,13,23)
       Max VN number:   0.87E-02 at (77,3,24)
       Mesh    6
       Max CFL number:  0.56E-02 at (1,2,14)
       Max divergence:  0.52E-06 at (19,16,10)
       Min divergence: -0.55E-04 at (13,3,23)
       Max VN number:   0.60E-02 at (5,14,17)
       Mesh    7
       Max CFL number:  0.80E+00 at (18,17,23)
       Max divergence:  0.17E+01 at (17,29,3)
       Min divergence: -0.26E-01 at (24,12,14)
       Max VN number:   0.90E+00 at (16,16,24)
       No. of Lagrangian Particles:  4680
       Total Heat Release Rate:            355.888 kW
       Radiation Loss to Boundaries:      -167.996 kW
 
       Time Step      30   November 18, 2022  13:41:27
       Step Size:    0.197E-01 s, Total Time:       0.74 s
       Pressure Iterations: 5
       Maximum Velocity Error:  0.82E-01 on Mesh 2 at (24,0,54)
       Maximum Pressure Error:  0.57E+02 on Mesh 7 at (17,33,3)
       ---------------------------------------------------------------
       Mesh    1
       Max CFL number:  0.16E+00 at (14,9,3)
       Max divergence:  0.11E-04 at (12,9,3)
       Min divergence: -0.84E-04 at (12,9,2)
       Max VN number:   0.25E+00 at (14,10,2)
       Mesh    2
       Max CFL number:  0.57E+00 at (9,7,51)
       Max divergence:  0.74E-04 at (14,16,31)
       Min divergence: -0.14E-03 at (7,7,51)
       Max VN number:   0.40E+00 at (13,16,31)
       Mesh    3
       Max CFL number:  0.64E-01 at (13,10,1)
       Max divergence:  0.30E-05 at (7,8,2)
       Min divergence: -0.27E-04 at (13,9,1)
       Max VN number:   0.76E-01 at (13,11,2)
       Mesh    4
       Max CFL number:  0.90E+00 at (5,1,15)
       Max divergence:  0.43E-03 at (47,26,21)
       Min divergence: -0.45E-03 at (46,25,20)
       Max VN number:   0.55E+00 at (47,27,21)
       Radiation Loss to Boundaries:         0.018 kW
       Mesh    5
       Max CFL number:  0.17E+00 at (77,2,24)
       Max divergence: -0.26E-04 at (77,2,14)
       Min divergence: -0.45E-04 at (21,13,23)
       Max VN number:   0.18E-01 at (77,2,24)
       Mesh    6
       Max CFL number:  0.50E-02 at (1,2,6)
       Max divergence:  0.52E-06 at (19,16,10)
       Min divergence: -0.45E-04 at (13,3,23)
       Max VN number:   0.54E-02 at (5,14,17)
       Mesh    7
       Max CFL number:  0.85E+00 at (17,48,24)
       Max divergence:  0.29E+01 at (22,26,3)
       Min divergence: -0.33E-01 at (26,13,10)
       Max VN number:   0.66E+00 at (16,48,24)
       No. of Lagrangian Particles:  6880
       Total Heat Release Rate:            537.722 kW
       Radiation Loss to Boundaries:      -230.826 kW
 
       Time Step      40   November 18, 2022  13:41:37
       Step Size:    0.176E-01 s, Total Time:       0.92 s
       Pressure Iterations: 4
       Maximum Velocity Error:  0.86E-01 on Mesh 4 at (68,14,24)
       Maximum Pressure Error:  0.23E+03 on Mesh 7 at (17,33,3)
       ---------------------------------------------------------------
       Mesh    1
       Max CFL number:  0.22E+00 at (13,9,3)
       Max divergence:  0.14E-04 at (12,9,3)
       Min divergence: -0.14E-03 at (12,9,2)
       Max VN number:   0.40E+00 at (13,9,4)
       Mesh    2
       Max CFL number:  0.49E+00 at (3,7,51)
       Max divergence:  0.74E-04 at (14,16,31)
       Min divergence: -0.16E-03 at (3,7,51)
       Max VN number:   0.40E+00 at (2,4,51)
       Mesh    3
       Max CFL number:  0.16E+00 at (13,12,61)
       Max divergence:  0.95E-05 at (12,9,45)
       Min divergence: -0.81E-04 at (13,12,60)
       Max VN number:   0.20E+00 at (14,9,14)
       Mesh    4
       Max CFL number:  0.93E+00 at (4,1,15)
       Max divergence:  0.71E-03 at (49,1,8)
       Min divergence: -0.44E-03 at (46,25,18)
       Max VN number:   0.62E+00 at (4,5,23)
       Radiation Loss to Boundaries:         0.072 kW
       Mesh    5
       Max CFL number:  0.18E+00 at (77,2,23)
       Max divergence: -0.16E-04 at (77,2,14)
       Min divergence: -0.37E-04 at (21,13,23)
       Max VN number:   0.54E-01 at (76,2,22)
       Mesh    6
       Max CFL number:  0.57E-02 at (1,14,23)
       Max divergence:  0.52E-06 at (19,16,10)
       Min divergence: -0.38E-04 at (13,3,23)
       Max VN number:   0.47E-02 at (19,3,9)
       Mesh    7
       Max CFL number:  0.63E+00 at (18,47,23)
       Max divergence:  0.38E+01 at (11,27,3)
       Min divergence: -0.12E+01 at (24,40,5)
       Max VN number:   0.80E+00 at (17,16,24)
       No. of Lagrangian Particles:  8794
       Total Heat Release Rate:            396.320 kW
       Radiation Loss to Boundaries:       -51.615 kW
 
       Time Step      50   November 18, 2022  13:41:47
       Step Size:    0.158E-01 s, Total Time:       1.09 s
       Pressure Iterations: 4
       Maximum Velocity Error:  0.76E-01 on Mesh 4 at (0,14,2)
       Maximum Pressure Error:  0.10E+03 on Mesh 7 at (13,38,3)
       ---------------------------------------------------------------
       Mesh    1
       Max CFL number:  0.27E+00 at (13,9,3)
       Max divergence:  0.17E-04 at (12,9,3)
       Min divergence: -0.18E-03 at (12,9,2)
       Max VN number:   0.57E+00 at (13,9,4)
       Mesh    2
       Max CFL number:  0.54E+00 at (3,7,51)
       Max divergence:  0.80E-04 at (14,16,32)
       Min divergence: -0.24E-03 at (3,7,51)
       Max VN number:   0.42E+00 at (9,6,48)
       Mesh    3
       Max CFL number:  0.26E+00 at (13,12,61)
       Max divergence:  0.15E-04 at (12,9,45)
       Min divergence: -0.15E-03 at (12,12,60)
       Max VN number:   0.41E+00 at (13,9,46)
       Mesh    4
       Max CFL number:  0.92E+00 at (4,1,15)
       Max divergence:  0.91E-03 at (51,1,8)
       Min divergence: -0.42E-03 at (46,25,17)
       Max VN number:   0.61E+00 at (4,5,23)
       Radiation Loss to Boundaries:         0.156 kW
       Mesh    5
       Max CFL number:  0.18E+00 at (77,2,23)
       Max divergence: -0.91E-05 at (77,2,14)
       Min divergence: -0.32E-04 at (21,13,23)
       Max VN number:   0.36E-01 at (76,2,18)
       Mesh    6
       Max CFL number:  0.43E-02 at (1,14,6)
       Max divergence:  0.52E-06 at (19,16,10)
       Min divergence: -0.32E-04 at (13,3,23)
       Max VN number:   0.43E-02 at (19,3,9)
       Mesh    7
       Max CFL number:  0.55E+00 at (18,17,24)
       Max divergence:  0.48E+01 at (15,39,3)
       Min divergence: -0.30E+01 at (14,38,3)
       Max VN number:   0.46E+00 at (19,48,24)
       No. of Lagrangian Particles:  10343
       Total Heat Release Rate:            475.824 kW
       Radiation Loss to Boundaries:       -99.018 kW
 
       Time Step      60   November 18, 2022  13:41:51
       Step Size:    0.158E-01 s, Total Time:       1.25 s
       Pressure Iterations: 5
       Maximum Velocity Error:  0.54E-01 on Mesh 2 at (24,0,54)
       Maximum Pressure Error:  0.13E+03 on Mesh 7 at (15,29,3)
       ---------------------------------------------------------------
       Mesh    1
       Max CFL number:  0.34E+00 at (14,9,3)
       Max divergence:  0.24E-04 at (12,9,93)
       Min divergence: -0.21E-03 at (12,9,2)
       Max VN number:   0.81E+00 at (13,9,4)
       Mesh    2
       Max CFL number:  0.67E+00 at (3,7,51)
       Max divergence:  0.92E-04 at (14,16,31)
       Min divergence: -0.35E-03 at (3,7,51)
       Max VN number:   0.60E+00 at (9,6,48)
       Mesh    3
       Max CFL number:  0.36E+00 at (13,13,61)
       Max divergence:  0.19E-04 at (12,9,45)
       Min divergence: -0.23E-03 at (12,13,60)
       Max VN number:   0.68E+00 at (13,9,46)
       Mesh    4
       Max CFL number:  0.99E+00 at (4,1,15)
       Max divergence:  0.94E-03 at (38,1,8)
       Min divergence: -0.14E-01 at (50,1,6)
       Max VN number:   0.70E+00 at (4,5,23)
       No. of Lagrangian Particles:  66
       Radiation Loss to Boundaries:         0.190 kW
       Mesh    5
       Max CFL number:  0.19E+00 at (77,2,23)
       Max divergence: -0.37E-05 at (77,2,14)
       Min divergence: -0.33E-04 at (77,2,23)
       Max VN number:   0.36E-01 at (76,2,16)
       Mesh    6
       Max CFL number:  0.47E-02 at (2,11,4)
       Max divergence:  0.52E-06 at (19,16,10)
       Min divergence: -0.28E-04 at (13,3,23)
       Max VN number:   0.43E-02 at (19,3,9)
       Mesh    7
       Max CFL number:  0.46E+00 at (22,29,3)
       Max divergence:  0.66E+01 at (13,26,3)
       Min divergence: -0.30E+01 at (14,36,4)
       Max VN number:   0.26E+00 at (19,48,24)
       No. of Lagrangian Particles:  10271
       Total Heat Release Rate:            573.345 kW
       Radiation Loss to Boundaries:      -138.221 kW
 
       Time Step      70   November 18, 2022  13:41:55
       Step Size:    0.142E-01 s, Total Time:       1.39 s
       Pressure Iterations: 3
       Maximum Velocity Error:  0.35E-01 on Mesh 2 at (9,0,53)
       Maximum Pressure Error:  0.56E+03 on Mesh 7 at (16,26,3)
       ---------------------------------------------------------------
       Mesh    1
       Max CFL number:  0.38E+00 at (13,10,3)
       Max divergence:  0.27E-04 at (12,9,93)
       Min divergence: -0.26E-03 at (12,10,3)
       Max VN number:   0.91E+00 at (13,9,4)
       Mesh    2
       Max CFL number:  0.69E+00 at (3,7,51)
       Max divergence:  0.10E-03 at (10,2,49)
       Min divergence: -0.34E-03 at (5,7,51)
       Max VN number:   0.43E+00 at (14,28,53)
       Mesh    3
       Max CFL number:  0.40E+00 at (12,13,61)
       Max divergence:  0.27E-04 at (15,12,60)
       Min divergence: -0.30E-03 at (12,13,60)
       Max VN number:   0.81E+00 at (13,9,46)
       Mesh    4
       Max CFL number:  0.93E+00 at (4,1,15)
       Max divergence:  0.90E-03 at (50,1,9)
       Min divergence: -0.21E-01 at (50,1,2)
       Max VN number:   0.67E+00 at (4,5,23)
       No. of Lagrangian Particles:  107
       Radiation Loss to Boundaries:         0.292 kW
       Mesh    5
       Max CFL number:  0.18E+00 at (77,2,23)
       Max divergence: -0.14E-06 at (77,2,12)
       Min divergence: -0.43E-04 at (77,2,23)
       Max VN number:   0.46E-01 at (74,2,21)
       Mesh    6
       Max CFL number:  0.47E-02 at (2,11,4)
       Max divergence:  0.51E-06 at (19,16,10)
       Min divergence: -0.24E-04 at (13,3,23)
       Max VN number:   0.39E-02 at (19,3,9)
       Mesh    7
       Max CFL number:  0.48E+00 at (22,36,6)
       Max divergence:  0.10E+02 at (24,33,3)
       Min divergence: -0.29E+01 at (22,37,7)
       Max VN number:   0.26E+00 at (15,19,24)
       No. of Lagrangian Particles:  10467
       Total Heat Release Rate:            740.555 kW
       Radiation Loss to Boundaries:      -193.909 kW
 
       Time Step      80   November 18, 2022  13:42:00
       Step Size:    0.142E-01 s, Total Time:       1.54 s
       Pressure Iterations: 2
       Maximum Velocity Error:  0.27E-01 on Mesh 7 at (14,30,2)
       Maximum Pressure Error:  0.39E+03 on Mesh 7 at (20,31,9)
       ---------------------------------------------------------------
       Mesh    1
       Max CFL number:  0.43E+00 at (13,10,3)
       Max divergence:  0.27E-04 at (15,20,56)
       Min divergence: -0.30E-03 at (12,10,3)
       Max VN number:   0.98E+00 at (13,9,64)
       Mesh    2
       Max CFL number:  0.72E+00 at (3,7,51)
       Max divergence:  0.11E-03 at (14,16,32)
       Min divergence: -0.30E-03 at (3,7,51)
       Max VN number:   0.48E+00 at (14,28,53)
       Mesh    3
       Max CFL number:  0.47E+00 at (4,14,61)
       Max divergence:  0.54E-04 at (16,13,59)
       Min divergence: -0.38E-03 at (5,13,60)
       Max VN number:   0.92E+00 at (13,9,16)
       Mesh    4
       Max CFL number:  0.96E+00 at (4,1,15)
       Max divergence:  0.13E-02 at (49,1,8)
       Min divergence: -0.21E-01 at (52,1,3)
       Max VN number:   0.72E+00 at (44,25,1)
       No. of Lagrangian Particles:  123
       Radiation Loss to Boundaries:         0.198 kW
       Mesh    5
       Max CFL number:  0.18E+00 at (77,2,23)
       Max divergence:  0.27E-05 at (77,2,12)
       Min divergence: -0.60E-04 at (77,2,23)
       Max VN number:   0.33E-01 at (74,2,18)
       Mesh    6
       Max CFL number:  0.50E-02 at (2,11,4)
       Max divergence:  0.51E-06 at (19,16,10)
       Min divergence: -0.21E-04 at (13,3,23)
       Max VN number:   0.39E-02 at (19,3,9)
       Mesh    7
       Max CFL number:  0.62E+00 at (22,36,9)
       Max divergence:  0.65E+01 at (22,32,3)
       Min divergence: -0.35E+01 at (20,36,7)
       Max VN number:   0.29E+00 at (17,16,24)
       No. of Lagrangian Particles:  10655
       Total Heat Release Rate:            819.988 kW
       Radiation Loss to Boundaries:      -224.229 kW
 
       Time Step      90   November 18, 2022  13:42:05
       Step Size:    0.142E-01 s, Total Time:       1.68 s
       Pressure Iterations: 2
       Maximum Velocity Error:  0.27E-01 on Mesh 7 at (14,30,2)
       Maximum Pressure Error:  0.88E+03 on Mesh 7 at (15,33,9)
       ---------------------------------------------------------------
       Mesh    1
       Max CFL number:  0.44E+00 at (13,10,93)
       Max divergence:  0.33E-04 at (11,10,4)
       Min divergence: -0.32E-03 at (15,19,70)
       Max VN number:   0.99E+00 at (13,9,34)
       Mesh    2
       Max CFL number:  0.76E+00 at (4,7,51)
       Max divergence:  0.11E-03 at (14,16,32)
       Min divergence: -0.30E-03 at (3,7,51)
       Max VN number:   0.51E+00 at (14,28,53)
       Mesh    3
       Max CFL number:  0.54E+00 at (14,14,56)
       Max divergence:  0.69E-04 at (17,14,58)
       Min divergence: -0.50E-03 at (11,13,58)
       Max VN number:   0.97E+00 at (13,9,16)
       Mesh    4
       Max CFL number:  0.99E+00 at (4,1,15)
       Max divergence:  0.19E-02 at (48,1,8)
       Min divergence: -0.90E-02 at (51,1,2)
       Max VN number:   0.86E+00 at (13,1,23)
       No. of Lagrangian Particles:  127
       Radiation Loss to Boundaries:         0.183 kW
       Mesh    5
       Max CFL number:  0.19E+00 at (77,2,23)
       Max divergence:  0.59E-05 at (77,4,14)
       Min divergence: -0.80E-04 at (77,2,23)
       Max VN number:   0.32E-01 at (77,2,24)
       Mesh    6
       Max CFL number:  0.62E-02 at (2,11,21)
       Max divergence:  0.51E-06 at (19,16,10)
       Min divergence: -0.19E-04 at (13,3,23)
       Max VN number:   0.40E-02 at (19,3,9)
       Mesh    7
       Max CFL number:  0.76E+00 at (15,34,11)
       Max divergence:  0.80E+01 at (15,33,8)
       Min divergence: -0.30E+01 at (15,34,11)
       Max VN number:   0.31E+00 at (20,48,24)
       No. of Lagrangian Particles:  10876
       Total Heat Release Rate:            872.565 kW
       Radiation Loss to Boundaries:      -221.147 kW
 
       Time Step     100   November 18, 2022  13:42:09
       Step Size:    0.128E-01 s, Total Time:       1.81 s
       Pressure Iterations: 3
       Maximum Velocity Error:  0.20E-01 on Mesh 7 at (10,34,2)
       Maximum Pressure Error:  0.78E+03 on Mesh 7 at (20,33,12)
       ---------------------------------------------------------------
       Mesh    1
       Max CFL number:  0.42E+00 at (14,13,1)
       Max divergence:  0.48E-04 at (11,10,4)
       Min divergence: -0.33E-03 at (15,19,70)
       Max VN number:   0.82E+00 at (13,9,34)
       Radiation Loss to Boundaries:        -0.001 kW
       Mesh    2
       Max CFL number:  0.70E+00 at (3,7,51)
       Max divergence:  0.11E-03 at (10,3,50)
       Min divergence: -0.29E-03 at (3,7,51)
       Max VN number:   0.51E+00 at (7,6,51)
       Mesh    3
       Max CFL number:  0.64E+00 at (14,14,56)
       Max divergence:  0.78E-04 at (1,16,58)
       Min divergence: -0.52E-03 at (11,14,57)
       Max VN number:   0.86E+00 at (13,9,16)
       Mesh    4
       Max CFL number:  0.91E+00 at (4,1,15)
       Max divergence:  0.25E-02 at (48,1,8)
       Min divergence: -0.11E-01 at (51,1,2)
       Max VN number:   0.84E+00 at (13,1,23)
       No. of Lagrangian Particles:  133
       Radiation Loss to Boundaries:         0.490 kW
       Mesh    5
       Max CFL number:  0.19E+00 at (77,2,23)
       Max divergence:  0.83E-05 at (77,4,14)
       Min divergence: -0.93E-04 at (77,2,23)
       Max VN number:   0.34E-01 at (77,2,23)
       Mesh    6
       Max CFL number:  0.70E-02 at (1,14,24)
       Max divergence:  0.51E-06 at (19,16,10)
       Min divergence: -0.17E-04 at (13,3,23)
       Max VN number:   0.36E-02 at (19,3,9)
       Mesh    7
       Max CFL number:  0.74E+00 at (20,33,10)
       Max divergence:  0.92E+01 at (17,35,11)
       Min divergence: -0.43E+01 at (21,37,10)
       Max VN number:   0.33E+00 at (37,37,10)
       No. of Lagrangian Particles:  11013
       Total Heat Release Rate:            930.548 kW
       Radiation Loss to Boundaries:      -198.098 kW
 
       Time Step     200   November 18, 2022  13:42:56
       Step Size:    0.861E-02 s, Total Time:       2.70 s
       Pressure Iterations: 3
       Maximum Velocity Error:  0.30E-01 on Mesh 7 at (18,20,24)
       Maximum Pressure Error:  0.47E+03 on Mesh 7 at (17,26,3)
       ---------------------------------------------------------------
       Mesh    1
       Max CFL number:  0.29E+00 at (14,17,9)
       Max divergence:  0.15E-03 at (13,21,41)
       Min divergence: -0.33E-03 at (12,17,73)
       Max VN number:   0.50E+00 at (14,17,73)
       Radiation Loss to Boundaries:        -0.003 kW
       Mesh    2
       Max CFL number:  0.44E+00 at (4,7,51)
       Max divergence:  0.21E-03 at (2,39,44)
       Min divergence: -0.34E-03 at (12,28,44)
       Max VN number:   0.42E+00 at (2,38,44)
       Mesh    3
       Max CFL number:  0.56E+00 at (14,14,56)
       Max divergence:  0.66E-03 at (1,18,52)
       Min divergence: -0.59E-03 at (18,14,47)
       Max VN number:   0.50E+00 at (14,17,25)
       Radiation Loss to Boundaries:        -0.002 kW
       Mesh    4
       Max CFL number:  0.66E+00 at (4,1,15)
       Max divergence:  0.80E-02 at (62,1,1)
       Min divergence: -0.72E-02 at (50,1,1)
       Max VN number:   0.66E+00 at (12,9,1)
       No. of Lagrangian Particles:  162
       Radiation Loss to Boundaries:         0.380 kW
       Mesh    5
       Max CFL number:  0.10E+00 at (77,2,21)
       Max divergence:  0.31E-04 at (77,7,22)
       Min divergence: -0.67E-04 at (77,4,23)
       Max VN number:   0.83E-01 at (77,12,1)
       Mesh    6
       Max CFL number:  0.16E-01 at (1,2,2)
       Max divergence:  0.17E-05 at (1,4,15)
       Min divergence: -0.77E-05 at (18,5,23)
       Max VN number:   0.29E-02 at (8,2,20)
       Mesh    7
       Max CFL number:  0.87E+00 at (15,34,21)
       Max divergence:  0.89E+01 at (18,35,15)
       Min divergence: -0.45E+01 at (17,19,23)
       Max VN number:   0.58E+00 at (10,39,24)
       No. of Lagrangian Particles:  12728
       Total Heat Release Rate:            888.021 kW
       Radiation Loss to Boundaries:      -211.681 kW
 
       Time Step     300   November 18, 2022  13:43:46
       Step Size:    0.883E-02 s, Total Time:       3.61 s
       Pressure Iterations: 2
       Maximum Velocity Error:  0.50E-01 on Mesh 7 at (17,35,24)
       Maximum Pressure Error:  0.76E+03 on Mesh 7 at (20,32,15)
       ---------------------------------------------------------------
       Mesh    1
       Max CFL number:  0.29E+00 at (11,17,29)
       Max divergence:  0.20E-03 at (2,16,45)
       Min divergence: -0.41E-03 at (11,14,59)
       Max VN number:   0.51E+00 at (13,9,34)
       Radiation Loss to Boundaries:        -0.004 kW
       Mesh    2
       Max CFL number:  0.48E+00 at (5,7,52)
       Max divergence:  0.35E-03 at (10,7,42)
       Min divergence: -0.55E-03 at (5,7,51)
       Max VN number:   0.57E+00 at (2,38,45)
       Mesh    3
       Max CFL number:  0.52E+00 at (14,15,50)
       Max divergence:  0.60E-03 at (2,15,51)
       Min divergence: -0.62E-03 at (8,16,54)
       Max VN number:   0.53E+00 at (13,9,31)
       Radiation Loss to Boundaries:        -0.003 kW
       Mesh    4
       Max CFL number:  0.68E+00 at (4,1,15)
       Max divergence:  0.46E+00 at (55,2,21)
       Min divergence: -0.65E+00 at (55,1,16)
       Max VN number:   0.95E+00 at (13,1,23)
       No. of Lagrangian Particles:  137
       Total Heat Release Rate:              0.005 kW
       Radiation Loss to Boundaries:         0.025 kW
       Mesh    5
       Max CFL number:  0.13E+00 at (77,2,22)
       Max divergence:  0.61E-04 at (77,2,22)
       Min divergence: -0.34E-04 at (76,3,23)
       Max VN number:   0.11E+00 at (77,12,1)
       Mesh    6
       Max CFL number:  0.32E+00 at (1,5,4)
       Max divergence:  0.78E-04 at (1,5,14)
       Min divergence: -0.37E-04 at (4,5,2)
       Max VN number:   0.12E+00 at (2,6,1)
       Mesh    7
       Max CFL number:  0.77E+00 at (18,33,17)
       Max divergence:  0.84E+01 at (20,33,16)
       Min divergence: -0.40E+01 at (21,36,6)
       Max VN number:   0.53E+00 at (9,7,24)
       No. of Lagrangian Particles:  14619
       Total Heat Release Rate:           1114.521 kW
       Radiation Loss to Boundaries:      -289.805 kW
 
       Time Step     400   November 18, 2022  13:44:34
       Step Size:    0.815E-02 s, Total Time:       4.42 s
       Pressure Iterations: 3
       Maximum Velocity Error:  0.42E-01 on Mesh 7 at (23,36,2)
       Maximum Pressure Error:  0.10E+04 on Mesh 7 at (23,36,3)
       ---------------------------------------------------------------
       Mesh    1
       Max CFL number:  0.31E+00 at (13,21,57)
       Max divergence:  0.31E-03 at (23,27,60)
       Min divergence: -0.61E-03 at (13,21,56)
       Max VN number:   0.47E+00 at (13,9,79)
       Radiation Loss to Boundaries:        -0.006 kW
       Mesh    2
       Max CFL number:  0.50E+00 at (10,7,41)
       Max divergence:  0.40E-03 at (10,2,37)
       Min divergence: -0.55E-03 at (6,10,39)
       Max VN number:   0.47E+00 at (9,6,49)
       Mesh    3
       Max CFL number:  0.51E+00 at (13,14,50)
       Max divergence:  0.60E-03 at (1,15,51)
       Min divergence: -0.70E-03 at (14,14,50)
       Max VN number:   0.53E+00 at (16,13,56)
       Radiation Loss to Boundaries:        -0.004 kW
       Mesh    4
       Max CFL number:  0.74E+00 at (12,1,19)
       Max divergence:  0.44E+00 at (66,1,8)
       Min divergence: -0.53E+00 at (66,2,9)
       Max VN number:   0.99E+00 at (10,6,1)
       No. of Lagrangian Particles:  148
       Total Heat Release Rate:              0.011 kW
       Radiation Loss to Boundaries:        -0.305 kW
       Mesh    5
       Max CFL number:  0.46E+00 at (77,2,1)
       Max divergence:  0.29E-03 at (77,2,2)
       Min divergence: -0.30E-03 at (77,2,23)
       Max VN number:   0.41E+00 at (77,3,24)
       Mesh    6
       Max CFL number:  0.32E+00 at (5,5,1)
       Max divergence:  0.14E-03 at (8,6,2)
       Min divergence: -0.14E-03 at (1,11,4)
       Max VN number:   0.11E+00 at (2,8,1)
       Mesh    7
       Max CFL number:  0.63E+00 at (18,41,24)
       Max divergence:  0.91E+01 at (10,34,3)
       Min divergence: -0.41E+01 at (20,29,10)
       Max VN number:   0.54E+00 at (17,10,24)
       No. of Lagrangian Particles:  15764
       Total Heat Release Rate:            982.633 kW
       Radiation Loss to Boundaries:      -188.771 kW
 
       Time Step     500   November 18, 2022  13:45:18
       Step Size:    0.827E-02 s, Total Time:       5.20 s
       Pressure Iterations: 2
       Maximum Velocity Error:  0.37E-01 on Mesh 7 at (13,29,2)
       Maximum Pressure Error:  0.66E+03 on Mesh 7 at (13,29,3)
       ---------------------------------------------------------------
       Mesh    1
       Max CFL number:  0.28E+00 at (16,27,91)
       Max divergence:  0.37E-03 at (25,7,5)
       Min divergence: -0.46E-03 at (16,21,50)
       Max VN number:   0.44E+00 at (13,9,49)
       Radiation Loss to Boundaries:        -0.007 kW
       Mesh    2
       Max CFL number:  0.48E+00 at (8,7,51)
       Max divergence:  0.40E-03 at (12,54,50)
       Min divergence: -0.59E-03 at (13,42,44)
       Max VN number:   0.39E+00 at (9,6,34)
       Mesh    3
       Max CFL number:  0.42E+00 at (19,9,46)
       Max divergence:  0.60E-03 at (1,14,51)
       Min divergence: -0.62E-03 at (15,14,55)
       Max VN number:   0.57E+00 at (6,17,60)
       Radiation Loss to Boundaries:        -0.004 kW
       Mesh    4
       Max CFL number:  0.74E+00 at (14,2,24)
       Max divergence:  0.28E+00 at (62,2,6)
       Min divergence: -0.33E+00 at (64,3,4)
       Max VN number:   0.92E+00 at (13,1,23)
       No. of Lagrangian Particles:  136
       Radiation Loss to Boundaries:        -0.928 kW
       Mesh    5
       Max CFL number:  0.40E+00 at (76,5,24)
       Max divergence:  0.18E-03 at (69,2,2)
       Min divergence: -0.27E-03 at (77,2,21)
       Max VN number:   0.31E+00 at (68,2,13)
       Mesh    6
       Max CFL number:  0.28E+00 at (4,4,1)
       Max divergence:  0.12E-03 at (1,8,10)
       Min divergence: -0.16E-03 at (4,9,6)
       Max VN number:   0.30E+00 at (1,6,1)
       Mesh    7
       Max CFL number:  0.84E+00 at (17,31,18)
       Max divergence:  0.89E+01 at (13,29,3)
       Min divergence: -0.38E+01 at (16,18,23)
       Max VN number:   0.44E+00 at (25,40,24)
       No. of Lagrangian Particles:  16134
       Total Heat Release Rate:           1015.425 kW
       Radiation Loss to Boundaries:      -226.793 kW
 
       Time Step     600   November 18, 2022  13:46:03
       Step Size:    0.967E-02 s, Total Time:       6.10 s
       Pressure Iterations: 2
       Maximum Velocity Error:  0.43E-01 on Mesh 7 at (16,29,24)
       Maximum Pressure Error:  0.56E+03 on Mesh 7 at (14,29,3)
       ---------------------------------------------------------------
       Mesh    1
       Max CFL number:  0.32E+00 at (21,11,83)
       Max divergence:  0.32E-03 at (1,24,58)
       Min divergence: -0.42E-03 at (13,14,36)
       Max VN number:   0.50E+00 at (13,9,64)
       Radiation Loss to Boundaries:        -0.009 kW
       Mesh    2
       Max CFL number:  0.55E+00 at (9,7,40)
       Max divergence:  0.36E-03 at (2,39,54)
       Min divergence: -0.68E-03 at (11,13,34)
       Max VN number:   0.60E+00 at (9,6,47)
       Radiation Loss to Boundaries:        -0.001 kW
       Mesh    3
       Max CFL number:  0.50E+00 at (12,13,61)
       Max divergence:  0.65E-03 at (3,15,51)
       Min divergence: -0.60E-03 at (7,12,55)
       Max VN number:   0.61E+00 at (14,14,60)
       Radiation Loss to Boundaries:        -0.005 kW
       Mesh    4
       Max CFL number:  0.87E+00 at (9,3,20)
       Max divergence:  0.21E+00 at (54,1,6)
       Min divergence: -0.49E+00 at (58,2,24)
       Max VN number:   0.79E+00 at (14,7,16)
       No. of Lagrangian Particles:  43
       Radiation Loss to Boundaries:        -0.949 kW
       Mesh    5
       Max CFL number:  0.39E+00 at (74,2,15)
       Max divergence:  0.22E-03 at (75,2,14)
       Min divergence: -0.44E-03 at (69,2,16)
       Max VN number:   0.36E+00 at (65,9,24)
       Mesh    6
       Max CFL number:  0.32E+00 at (2,5,2)
       Max divergence:  0.19E-03 at (1,4,9)
       Min divergence: -0.23E-03 at (3,8,8)
       Max VN number:   0.28E+00 at (18,4,1)
       Mesh    7
       Max CFL number:  0.78E+00 at (17,31,22)
       Max divergence:  0.81E+01 at (18,32,10)
       Min divergence: -0.33E+01 at (18,35,7)
       Max VN number:   0.63E+00 at (17,8,24)
       No. of Lagrangian Particles:  16657
       Total Heat Release Rate:           1052.421 kW
       Radiation Loss to Boundaries:      -249.868 kW
 
       Time Step     700   November 18, 2022  13:46:51
       Step Size:    0.886E-02 s, Total Time:       6.96 s
       Pressure Iterations: 3
       Maximum Velocity Error:  0.17E-01 on Mesh 7 at (21,30,2)
       Maximum Pressure Error:  0.11E+04 on Mesh 7 at (21,30,3)
       ---------------------------------------------------------------
       Mesh    1
       Max CFL number:  0.28E+00 at (23,11,83)
       Max divergence:  0.25E-03 at (25,7,46)
       Min divergence: -0.48E-03 at (13,21,38)
       Max VN number:   0.50E+00 at (13,9,64)
       Radiation Loss to Boundaries:        -0.011 kW
       Mesh    2
       Max CFL number:  0.54E+00 at (5,7,51)
       Max divergence:  0.43E-03 at (12,7,47)
       Min divergence: -0.54E-03 at (11,16,44)
       Max VN number:   0.45E+00 at (9,6,34)
       Radiation Loss to Boundaries:        -0.001 kW
       Mesh    3
       Max CFL number:  0.48E+00 at (16,8,46)
       Max divergence:  0.52E-03 at (1,14,51)
       Min divergence: -0.62E-03 at (3,12,59)
       Max VN number:   0.63E+00 at (8,11,60)
       Radiation Loss to Boundaries:        -0.006 kW
       Mesh    4
       Max CFL number:  0.73E+00 at (4,1,15)
       Max divergence:  0.10E+00 at (56,2,16)
       Min divergence: -0.14E+00 at (62,3,19)
       Max VN number:   0.89E+00 at (11,8,1)
       No. of Lagrangian Particles:  3
       Radiation Loss to Boundaries:        -0.993 kW
       Mesh    5
       Max CFL number:  0.43E+00 at (71,4,1)
       Max divergence:  0.26E-03 at (69,2,9)
       Min divergence: -0.21E-03 at (77,5,5)
       Max VN number:   0.49E+00 at (72,2,10)
       Mesh    6
       Max CFL number:  0.24E+00 at (2,3,6)
       Max divergence:  0.18E-03 at (1,7,20)
       Min divergence: -0.13E-03 at (7,4,13)
       Max VN number:   0.25E+00 at (2,5,1)
       Mesh    7
       Max CFL number:  0.68E+00 at (22,34,19)
       Max divergence:  0.73E+01 at (13,30,3)
       Min divergence: -0.43E+01 at (19,46,23)
       Max VN number:   0.42E+00 at (32,27,23)
       No. of Lagrangian Particles:  17673
       Total Heat Release Rate:           1090.872 kW
       Radiation Loss to Boundaries:      -205.672 kW
 
       Time Step     800   November 18, 2022  13:47:36
       Step Size:    0.879E-02 s, Total Time:       7.77 s
       Pressure Iterations: 2
       Maximum Velocity Error:  0.46E-01 on Mesh 7 at (21,40,2)
       Maximum Pressure Error:  0.50E+03 on Mesh 7 at (21,40,3)
       ---------------------------------------------------------------
       Mesh    1
       Max CFL number:  0.29E+00 at (15,7,17)
       Max divergence:  0.20E-03 at (1,21,88)
       Min divergence: -0.56E-03 at (13,21,39)
       Max VN number:   0.45E+00 at (10,23,85)
       Radiation Loss to Boundaries:        -0.012 kW
       Mesh    2
       Max CFL number:  0.55E+00 at (8,7,51)
       Max divergence:  0.43E-03 at (14,33,49)
       Min divergence: -0.49E-03 at (11,28,51)
       Max VN number:   0.44E+00 at (9,6,46)
       Radiation Loss to Boundaries:        -0.001 kW
       Mesh    3
       Max CFL number:  0.45E+00 at (13,11,48)
       Max divergence:  0.57E-03 at (1,15,51)
       Min divergence: -0.61E-03 at (7,12,53)
       Max VN number:   0.53E+00 at (13,9,46)
       Radiation Loss to Boundaries:        -0.007 kW
       Mesh    4
       Max CFL number:  0.85E+00 at (14,4,17)
       Max divergence:  0.19E+00 at (58,2,24)
       Min divergence: -0.43E+00 at (57,2,24)
       Max VN number:   0.89E+00 at (9,8,1)
       No. of Lagrangian Particles:  5
       Total Heat Release Rate:              0.002 kW
       Radiation Loss to Boundaries:        -1.019 kW
       Mesh    5
[...]
       Mesh    1
       Max CFL number:  0.28E+00 at (12,7,46)
       Max divergence:  0.19E-03 at (1,19,2)
       Min divergence: -0.34E-03 at (12,9,47)
       Max VN number:   0.44E+00 at (15,20,56)
       Radiation Loss to Boundaries:        -0.077 kW
       Mesh    2
       Max CFL number:  0.46E+00 at (3,7,51)
       Max divergence:  0.38E+00 at (2,1,50)
       Min divergence: -0.35E+00 at (8,5,51)
       Max VN number:   0.42E+00 at (14,41,46)
       Total Heat Release Rate:              0.002 kW
       Radiation Loss to Boundaries:         0.087 kW
       Mesh    3
       Max CFL number:  0.43E+00 at (15,13,49)
       Max divergence:  0.62E-03 at (1,18,52)
       Min divergence: -0.46E-03 at (8,15,58)
       Max VN number:   0.53E+00 at (13,25,52)
       Radiation Loss to Boundaries:        -0.018 kW
       Mesh    4
       Max CFL number:  0.77E+00 at (13,1,15)
       Max divergence:  0.23E+01 at (56,2,3)
       Min divergence: -0.17E+01 at (48,28,21)
       Max VN number:   0.82E+00 at (10,8,1)
       No. of Lagrangian Particles:  248
       Total Heat Release Rate:            180.706 kW
       Radiation Loss to Boundaries:       -55.792 kW
       Mesh    5
       Max CFL number:  0.39E+00 at (73,10,3)
       Max divergence:  0.20E+00 at (70,3,15)
       Min divergence: -0.27E+00 at (76,2,13)
       Max VN number:   0.45E+00 at (74,2,14)
       Radiation Loss to Boundaries:        -3.406 kW
       Mesh    6
       Max CFL number:  0.25E+00 at (1,3,6)
       Max divergence:  0.13E+00 at (15,3,14)
       Min divergence: -0.19E+00 at (19,11,13)
       Max VN number:   0.24E+00 at (10,1,3)
       Total Heat Release Rate:              0.007 kW
       Radiation Loss to Boundaries:        -6.666 kW
       Mesh    7
       Max CFL number:  0.53E+00 at (26,23,13)
       Max divergence:  0.18E+02 at (25,35,3)
       Min divergence: -0.36E+01 at (18,17,23)
       Max VN number:   0.38E+00 at (6,5,24)
       No. of Lagrangian Particles:  17538
       Total Heat Release Rate:            858.260 kW
       Radiation Loss to Boundaries:      -184.581 kW
 
       Time Step   32100   November 18, 2022  17:43:45
       Step Size:    0.937E-02 s, Total Time:     294.66 s
       Pressure Iterations: 5
       Maximum Velocity Error:  0.49E-01 on Mesh 7 at (21,25,0)
       Maximum Pressure Error:  0.15E+04 on Mesh 7 at (12,26,4)
       ---------------------------------------------------------------
       Mesh    1
       Max CFL number:  0.28E+00 at (15,7,47)
       Max divergence:  0.19E-03 at (10,8,20)
       Min divergence: -0.35E-03 at (17,8,76)
       Max VN number:   0.51E+00 at (15,20,56)
       Radiation Loss to Boundaries:        -0.076 kW
       Mesh    2
       Max CFL number:  0.39E+00 at (9,7,36)
       Max divergence:  0.44E+00 at (5,4,50)
       Min divergence: -0.67E+00 at (4,1,51)
       Max VN number:   0.34E+00 at (9,6,42)
       Radiation Loss to Boundaries:         0.044 kW
       Mesh    3
       Max CFL number:  0.40E+00 at (23,7,46)
       Max divergence:  0.51E-03 at (1,18,52)
       Min divergence: -0.45E-03 at (10,15,54)
       Max VN number:   0.39E+00 at (14,10,44)
       Radiation Loss to Boundaries:        -0.018 kW
       Mesh    4
       Max CFL number:  0.78E+00 at (4,1,15)
       Max divergence:  0.27E+01 at (57,3,8)
       Min divergence: -0.11E+01 at (46,27,20)
       Max VN number:   0.90E+00 at (8,8,1)
       No. of Lagrangian Particles:  76
       Total Heat Release Rate:            220.778 kW
       Radiation Loss to Boundaries:       -60.036 kW
       Mesh    5
       Max CFL number:  0.39E+00 at (77,9,23)
       Max divergence:  0.25E+00 at (76,10,21)
       Min divergence: -0.27E+00 at (77,11,21)
       Max VN number:   0.32E+00 at (76,2,12)
       Radiation Loss to Boundaries:        -3.647 kW
       Mesh    6
       Max CFL number:  0.22E+00 at (1,14,24)
       Max divergence:  0.16E+00 at (16,2,12)
       Min divergence: -0.16E+00 at (5,9,24)
       Max VN number:   0.21E+00 at (17,13,1)
       Total Heat Release Rate:              0.137 kW
       Radiation Loss to Boundaries:        -6.921 kW
       Mesh    7
       Max CFL number:  0.58E+00 at (18,17,18)
       Max divergence:  0.18E+02 at (26,33,3)
       Min divergence: -0.71E+01 at (17,18,23)
       Max VN number:   0.36E+00 at (1,47,11)
       No. of Lagrangian Particles:  17975
       Total Heat Release Rate:           1064.768 kW
       Radiation Loss to Boundaries:      -230.318 kW
 
       Time Step   32200   November 18, 2022  17:44:30
       Step Size:    0.103E-01 s, Total Time:     295.65 s
       Pressure Iterations: 4
       Maximum Velocity Error:  0.33E-01 on Mesh 7 at (25,26,0)
       Maximum Pressure Error:  0.77E+03 on Mesh 7 at (11,30,3)
       ---------------------------------------------------------------
       Mesh    1
       Max CFL number:  0.26E+00 at (7,23,25)
       Max divergence:  0.18E-03 at (8,8,80)
       Min divergence: -0.34E-03 at (17,8,76)
       Max VN number:   0.45E+00 at (15,20,56)
       Radiation Loss to Boundaries:        -0.074 kW
       Mesh    2
       Max CFL number:  0.40E+00 at (9,2,43)
       Max divergence:  0.42E+00 at (3,2,50)
       Min divergence: -0.51E+00 at (2,1,48)
       Max VN number:   0.38E+00 at (21,51,46)
       Total Heat Release Rate:              0.005 kW
       Radiation Loss to Boundaries:        -0.006 kW
       Mesh    3
       Max CFL number:  0.44E+00 at (14,13,49)
       Max divergence:  0.46E-03 at (1,18,52)
       Min divergence: -0.43E-03 at (3,14,59)
       Max VN number:   0.53E+00 at (14,14,60)
       Radiation Loss to Boundaries:        -0.018 kW
       Mesh    4
       Max CFL number:  0.87E+00 at (4,1,15)
       Max divergence:  0.20E+01 at (56,10,15)
       Min divergence: -0.82E+00 at (56,13,16)
       Max VN number:   0.86E+00 at (11,8,1)
       No. of Lagrangian Particles:  238
       Total Heat Release Rate:            207.956 kW
       Radiation Loss to Boundaries:       -60.933 kW
       Mesh    5
       Max CFL number:  0.43E+00 at (77,4,1)
       Max divergence:  0.35E+00 at (65,2,18)
       Min divergence: -0.39E+00 at (67,2,17)
       Max VN number:   0.35E+00 at (68,4,24)
       Radiation Loss to Boundaries:        -4.103 kW
       Mesh    6
       Max CFL number:  0.30E+00 at (5,11,24)
       Max divergence:  0.11E+00 at (19,6,11)
       Min divergence: -0.16E+00 at (3,14,24)
       Max VN number:   0.31E+00 at (3,10,24)
       Total Heat Release Rate:              0.081 kW
       Radiation Loss to Boundaries:        -8.795 kW
       Mesh    7
       Max CFL number:  0.60E+00 at (14,17,20)
       Max divergence:  0.18E+02 at (24,24,4)
       Min divergence: -0.39E+01 at (16,18,23)
       Max VN number:   0.41E+00 at (17,22,1)
       No. of Lagrangian Particles:  18215
       Total Heat Release Rate:            961.292 kW
       Radiation Loss to Boundaries:      -169.423 kW
 
       Time Step   32300   November 18, 2022  17:45:16
       Step Size:    0.100E-01 s, Total Time:     296.65 s
       Pressure Iterations: 3
       Maximum Velocity Error:  0.49E-01 on Mesh 7 at (24,36,2)
       Maximum Pressure Error:  0.92E+03 on Mesh 7 at (24,36,3)
       ---------------------------------------------------------------
       Mesh    1
       Max CFL number:  0.24E+00 at (14,13,1)
       Max divergence:  0.18E-03 at (19,4,5)
       Min divergence: -0.36E-03 at (1,21,23)
       Max VN number:   0.43E+00 at (15,20,56)
       Radiation Loss to Boundaries:        -0.075 kW
       Mesh    2
       Max CFL number:  0.44E+00 at (5,1,43)
       Max divergence:  0.64E+00 at (2,2,47)
       Min divergence: -0.91E+00 at (2,1,47)
       Max VN number:   0.41E+00 at (9,6,48)
       Total Heat Release Rate:              0.013 kW
       Radiation Loss to Boundaries:        -0.494 kW
       Mesh    3
       Max CFL number:  0.44E+00 at (13,15,50)
       Max divergence:  0.34E-03 at (4,15,51)
       Min divergence: -0.44E-03 at (5,12,52)
       Max VN number:   0.42E+00 at (14,13,60)
       Radiation Loss to Boundaries:        -0.018 kW
       Mesh    4
       Max CFL number:  0.81E+00 at (4,1,15)
       Max divergence:  0.28E+01 at (58,4,10)
       Min divergence: -0.89E+00 at (46,21,18)
       Max VN number:   0.69E+00 at (14,6,19)
       No. of Lagrangian Particles:  462
       Total Heat Release Rate:            176.326 kW
       Radiation Loss to Boundaries:       -56.108 kW
       Mesh    5
       Max CFL number:  0.41E+00 at (72,3,2)
       Max divergence:  0.33E+00 at (59,2,19)
       Min divergence: -0.44E+00 at (77,13,22)
       Max VN number:   0.39E+00 at (70,2,10)
       Radiation Loss to Boundaries:        -4.957 kW
       Mesh    6
       Max CFL number:  0.25E+00 at (1,10,24)
       Max divergence:  0.13E+00 at (4,7,15)
       Min divergence: -0.12E+00 at (12,14,23)
       Max VN number:   0.12E+00 at (19,10,23)
       Total Heat Release Rate:              0.040 kW
       Radiation Loss to Boundaries:        -8.798 kW
       Mesh    7
       Max CFL number:  0.51E+00 at (25,24,5)
       Max divergence:  0.18E+02 at (27,24,7)
       Min divergence: -0.36E+01 at (17,48,23)
       Max VN number:   0.44E+00 at (15,20,1)
       No. of Lagrangian Particles:  18928
       Total Heat Release Rate:            640.153 kW
       Radiation Loss to Boundaries:      -156.598 kW
 
       Time Step   32400   November 18, 2022  17:46:02
       Step Size:    0.828E-02 s, Total Time:     297.62 s
       Pressure Iterations: 6
       Maximum Velocity Error:  0.39E-01 on Mesh 7 at (24,25,0)
       Maximum Pressure Error:  0.13E+04 on Mesh 7 at (24,25,2)
       ---------------------------------------------------------------
       Mesh    1
       Max CFL number:  0.22E+00 at (13,10,64)
       Max divergence:  0.14E-03 at (10,8,20)
       Min divergence: -0.30E-03 at (12,9,47)
       Max VN number:   0.37E+00 at (16,20,86)
       Radiation Loss to Boundaries:        -0.075 kW
       Mesh    2
       Max CFL number:  0.40E+00 at (9,7,35)
       Max divergence:  0.58E+00 at (5,4,51)
       Min divergence: -0.47E+00 at (6,1,50)
       Max VN number:   0.47E+00 at (9,6,43)
       Total Heat Release Rate:              0.074 kW
       Radiation Loss to Boundaries:        -0.258 kW
       Mesh    3
       Max CFL number:  0.35E+00 at (12,15,61)
       Max divergence:  0.51E-03 at (1,18,52)
       Min divergence: -0.48E-03 at (10,13,58)
       Max VN number:   0.44E+00 at (15,20,38)
       Radiation Loss to Boundaries:        -0.018 kW
       Mesh    4
       Max CFL number:  0.68E+00 at (5,1,15)
       Max divergence:  0.26E+01 at (62,1,9)
       Min divergence: -0.10E+01 at (61,6,17)
       Max VN number:   0.86E+00 at (13,1,19)
       No. of Lagrangian Particles:  311
       Total Heat Release Rate:            161.133 kW
       Radiation Loss to Boundaries:       -60.232 kW
       Mesh    5
       Max CFL number:  0.41E+00 at (77,7,24)
       Max divergence:  0.37E+00 at (55,2,21)
       Min divergence: -0.36E+00 at (72,2,12)
       Max VN number:   0.44E+00 at (74,14,7)
       Radiation Loss to Boundaries:        -5.660 kW
       Mesh    6
       Max CFL number:  0.20E+00 at (2,2,3)
       Max divergence:  0.12E+00 at (1,3,10)
       Min divergence: -0.12E+00 at (19,2,11)
       Max VN number:   0.16E+00 at (3,8,24)
       Total Heat Release Rate:              0.014 kW
       Radiation Loss to Boundaries:        -8.229 kW
       Mesh    7
       Max CFL number:  0.39E+00 at (26,33,3)
       Max divergence:  0.18E+02 at (25,31,3)
       Min divergence: -0.47E+01 at (17,17,23)
       Max VN number:   0.31E+00 at (17,54,24)
       No. of Lagrangian Particles:  19238
       Total Heat Release Rate:            620.281 kW
       Radiation Loss to Boundaries:      -162.955 kW
 
       Time Step   32500   November 18, 2022  17:46:49
       Step Size:    0.943E-02 s, Total Time:     298.62 s
       Pressure Iterations: 4
       Maximum Velocity Error:  0.19E-01 on Mesh 4 at (61,0,9)
       Maximum Pressure Error:  0.95E+03 on Mesh 7 at (24,28,3)
       ---------------------------------------------------------------
       Mesh    1
       Max CFL number:  0.30E+00 at (11,11,62)
       Max divergence:  0.16E-03 at (1,24,73)
       Min divergence: -0.35E-03 at (12,9,77)
       Max VN number:   0.54E+00 at (13,9,49)
       Radiation Loss to Boundaries:        -0.076 kW
       Mesh    2
       Max CFL number:  0.45E+00 at (6,7,51)
       Max divergence:  0.53E+00 at (2,4,50)
       Min divergence: -0.70E+00 at (2,4,51)
       Max VN number:   0.47E+00 at (9,6,41)
       Radiation Loss to Boundaries:        -0.247 kW
       Mesh    3
       Max CFL number:  0.45E+00 at (12,14,61)
       Max divergence:  0.41E-03 at (1,18,52)
       Min divergence: -0.54E-03 at (6,12,53)
       Max VN number:   0.54E+00 at (10,17,60)
       Radiation Loss to Boundaries:        -0.018 kW
       Mesh    4
       Max CFL number:  0.67E+00 at (12,1,20)
       Max divergence:  0.16E+01 at (59,1,9)
       Min divergence: -0.11E+01 at (45,26,17)
       Max VN number:   0.94E+00 at (13,1,23)
       No. of Lagrangian Particles:  384
       Total Heat Release Rate:            127.580 kW
       Radiation Loss to Boundaries:       -47.829 kW
       Mesh    5
       Max CFL number:  0.38E+00 at (77,5,1)
       Max divergence:  0.48E+00 at (68,4,21)
       Min divergence: -0.40E+00 at (57,3,18)
       Max VN number:   0.36E+00 at (74,14,9)
       Radiation Loss to Boundaries:        -6.093 kW
       Mesh    6
       Max CFL number:  0.34E+00 at (3,2,2)
       Max divergence:  0.88E-01 at (19,13,12)
       Min divergence: -0.13E+00 at (19,13,13)
       Max VN number:   0.21E+00 at (1,5,1)
       Total Heat Release Rate:              0.015 kW
       Radiation Loss to Boundaries:        -7.260 kW
       Mesh    7
       Max CFL number:  0.45E+00 at (33,37,1)
       Max divergence:  0.27E+02 at (24,40,3)
       Min divergence: -0.29E+01 at (17,17,23)
       Max VN number:   0.41E+00 at (23,17,1)
       No. of Lagrangian Particles:  19151
       Total Heat Release Rate:            595.149 kW
       Radiation Loss to Boundaries:      -155.012 kW
 
       Time Step   32600   November 18, 2022  17:47:35
       Step Size:    0.907E-02 s, Total Time:     299.56 s
       Pressure Iterations: 3
       Maximum Velocity Error:  0.44E-01 on Mesh 7 at (25,30,0)
       Maximum Pressure Error:  0.12E+04 on Mesh 7 at (23,24,1)
       ---------------------------------------------------------------
       Mesh    1
       Max CFL number:  0.29E+00 at (13,9,93)
       Max divergence:  0.18E-03 at (1,16,14)
       Min divergence: -0.36E-03 at (12,9,77)
       Max VN number:   0.42E+00 at (12,11,64)
       Radiation Loss to Boundaries:        -0.076 kW
       Mesh    2
       Max CFL number:  0.46E+00 at (8,7,51)
       Max divergence:  0.63E+00 at (4,1,50)
       Min divergence: -0.75E+00 at (6,5,51)
       Max VN number:   0.44E+00 at (2,4,52)
       Radiation Loss to Boundaries:        -0.254 kW
       Mesh    3
       Max CFL number:  0.41E+00 at (12,15,61)
       Max divergence:  0.53E-03 at (1,15,51)
       Min divergence: -0.57E-03 at (7,12,58)
       Max VN number:   0.56E+00 at (15,20,53)
       Radiation Loss to Boundaries:        -0.018 kW
       Mesh    4
       Max CFL number:  0.83E+00 at (5,1,15)
       Max divergence:  0.17E+01 at (62,7,18)
       Min divergence: -0.88E+00 at (46,27,19)
       Max VN number:   0.74E+00 at (14,10,23)
       No. of Lagrangian Particles:  569
       Total Heat Release Rate:            142.260 kW
       Radiation Loss to Boundaries:       -45.457 kW
       Mesh    5
       Max CFL number:  0.36E+00 at (74,2,4)
       Max divergence:  0.40E+00 at (74,2,13)
       Min divergence: -0.76E+00 at (76,2,13)
       Max VN number:   0.49E+00 at (75,2,13)
       Radiation Loss to Boundaries:        -5.754 kW
       Mesh    6
       Max CFL number:  0.32E+00 at (3,2,2)
       Max divergence:  0.12E+00 at (1,7,10)
       Min divergence: -0.13E+00 at (19,11,14)
       Max VN number:   0.17E+00 at (18,10,24)
       Total Heat Release Rate:              0.035 kW
       Radiation Loss to Boundaries:        -6.135 kW
       Mesh    7
       Max CFL number:  0.40E+00 at (18,21,24)
       Max divergence:  0.26E+02 at (25,30,3)
       Min divergence: -0.28E+01 at (18,46,23)
       Max VN number:   0.27E+00 at (20,15,1)
       No. of Lagrangian Particles:  18427
       Total Heat Release Rate:            732.611 kW
       Radiation Loss to Boundaries:      -169.510 kW
 
       Time Step   32651   November 18, 2022  17:47:59
       Step Size:    0.261E-03 s, Total Time:     300.00 s
       Pressure Iterations: 7
       Maximum Velocity Error:  0.12E-01 on Mesh 7 at (23,23,0)
       Maximum Pressure Error:  0.18E+04 on Mesh 7 at (21,40,3)
       ---------------------------------------------------------------
       Mesh    1
       Max CFL number:  0.69E-02 at (12,9,63)
       Max divergence:  0.22E-03 at (1,18,55)
       Min divergence: -0.34E-03 at (11,9,62)
       Max VN number:   0.11E-01 at (14,20,87)
       Radiation Loss to Boundaries:        -0.078 kW
       Mesh    2
       Max CFL number:  0.13E-01 at (8,7,38)
       Max divergence:  0.48E+00 at (9,5,51)
       Min divergence: -0.67E+00 at (7,5,51)
       Max VN number:   0.13E-01 at (2,6,51)
       Total Heat Release Rate:              0.001 kW
       Radiation Loss to Boundaries:        -0.217 kW
       Mesh    3
       Max CFL number:  0.13E-01 at (13,14,50)
       Max divergence:  0.52E-03 at (1,18,52)
       Min divergence: -0.56E-03 at (10,14,52)
       Max VN number:   0.14E-01 at (8,11,60)
       Radiation Loss to Boundaries:        -0.018 kW
       Mesh    4
       Max CFL number:  0.20E-01 at (12,1,15)
       Max divergence:  0.17E+01 at (58,2,2)
       Min divergence: -0.88E+00 at (62,2,9)
       Max VN number:   0.22E-01 at (8,7,1)
       No. of Lagrangian Particles:  523
       Total Heat Release Rate:            166.064 kW
       Radiation Loss to Boundaries:       -49.593 kW
       Mesh    5
       Max CFL number:  0.90E-02 at (63,2,11)
       Max divergence:  0.32E+00 at (76,2,13)
       Min divergence: -0.41E+00 at (67,2,15)
       Max VN number:   0.71E-02 at (71,4,24)
       Radiation Loss to Boundaries:        -5.372 kW
       Mesh    6
       Max CFL number:  0.83E-02 at (1,2,9)
       Max divergence:  0.11E+00 at (1,2,13)
       Min divergence: -0.11E+00 at (1,2,15)
       Max VN number:   0.57E-02 at (18,2,6)
       Total Heat Release Rate:              0.103 kW
       Radiation Loss to Boundaries:        -5.823 kW
       Mesh    7
       Max CFL number:  0.12E-01 at (33,59,1)
       Max divergence:  0.18E+02 at (25,37,3)
       Min divergence: -0.79E+01 at (17,18,23)
       Max VN number:   0.12E-01 at (32,54,1)
       No. of Lagrangian Particles:  18341
       Total Heat Release Rate:            737.427 kW
       Radiation Loss to Boundaries:      -165.984 kW
 


 DEVICE Activation Times

   1  SPRK1                                                            0.0 s
   2  SPRK01                                                           0.0 s
  40  Apt_Door_FF->OUT->OUT->OUT                                      60.0 s
  41  Stair_Door_FF->OUT->OUT->OUT                                     0.0 s


 CONTROL Activation Times

   1  invert                                                      T    60.0 s


 Time Stepping Wall Clock Time (s):    14821.773
 Total Elapsed Wall Clock Time (s):    14835.638

STOP: FDS completed successfully (CHID: SC)
